47

C     -1.536228   -2.561552   -0.826288
C     -0.960420   -3.662842   -1.419169
C     -0.160343   -4.537582   -0.675731
C      0.043328   -4.282511    0.655809
C     -0.543240   -3.168592    1.240512
C     -1.332838   -2.303644    0.510800
C     -1.924212   -1.135703    1.204694
C     -2.804239   -0.275807    0.387611
N     -2.254608    0.353737   -0.762987
S     -3.517861    1.282095   -1.519511
O     -3.027847    1.971274   -2.741487
O     -4.690310    0.394713   -1.824517
C     -4.037314    2.504766   -0.345715
C     -5.140095    3.341041   -0.961342
F     -5.505387    4.276355   -0.002317
F     -4.708572    3.959100   -2.124633
F     -6.215585    2.527712   -1.252221
N     -0.982426   -0.457856    2.061220
C      0.314564   -0.116315    1.618647
N      0.677490   -0.449787    0.372784
C      1.918230   -0.146896   -0.112821
C      2.820681    0.505592    0.664085
C      2.456773    0.852647    1.946395
N      1.209345    0.531041    2.390044
C      4.152842    0.833641    0.150882
N      4.620633    0.543628   -1.086325
N      5.859550    0.994856   -1.182287
C      6.184510    1.571285   -0.012629
O      5.133904    1.452068    0.755948
C      7.499790    2.224272    0.339135
F      8.016613    1.691047    1.504460
F      7.204074    3.564231    0.622118
F      0.408191   -5.614737   -1.236992
H     -2.143098   -1.919058   -1.437903
H     -1.112043   -3.875933   -2.465952
H      0.661821   -4.961683    1.223710
H     -0.339664   -3.026481    2.301398
H     -2.646584   -1.629801    1.966106
H     -3.671648   -0.891514    0.060157
H     -3.195636    0.534775    1.068419
H     -1.436470    0.975369   -0.553864
H     -3.158750    3.151578   -0.127228
H     -4.464602    2.052723    0.576485
H     -1.208527   -0.178547    3.064275
H      2.173824   -0.437839   -1.137203
H      3.170825    1.373267    2.572241
H      8.191561    2.171868   -0.506087
