31

C     -3.992165   -0.322015   -0.226555
C     -2.524930   -0.182550   -0.114541
C     -1.908426    0.988449    0.243761
O     -0.611696    1.097849    0.360522
C      0.247961    0.090603    0.137870
C     -0.296894   -1.130849   -0.233360
C     -1.692627   -1.251656   -0.355932
O     -2.167616   -2.349930   -0.693069
C      0.608929   -2.270603   -0.364417
C      1.691345    0.308720    0.257559
C      2.387003   -0.214348    1.460852
C      2.486332    0.378025   -0.968748
O      2.182032    0.106002   -2.103224
C      3.905975    0.865222   -0.780889
C     -2.763614    2.168042    0.491439
H     -4.486478    0.669557   -0.475326
H     -4.355399   -1.031245   -0.994906
H     -4.372440   -0.727913    0.749090
H      0.049286   -3.095241   -0.876350
H      0.818620   -2.739232    0.662893
H      1.524216   -2.139835   -0.922046
H      1.702850    1.496819    0.546603
H      3.064373    0.493780    1.949150
H      1.675831   -0.592274    2.234484
H      3.102756   -1.073164    1.178076
H      4.233355    1.409781   -1.691880
H      3.953085    1.580600    0.097940
H      4.527604   -0.008548   -0.571885
H     -3.680978    1.957950    1.055133
H     -2.228120    2.952728    1.073794
H     -3.080171    2.565274   -0.519789
