46

C     -0.822163    3.088686    0.912255
C     -0.416209    4.342712    0.556719
C     -0.275754    4.676706   -0.783333
C     -0.541796    3.747268   -1.749419
C     -0.955812    2.467557   -1.372175
C     -1.101236    2.128331   -0.046143
C     -1.645153    0.791616    0.359576
C     -3.111991    0.889166    0.063079
N     -3.906406   -0.274084    0.341817
C     -4.234862   -1.276497   -0.480157
C     -5.037298   -2.179628    0.174205
N     -5.188064   -1.711877    1.404535
C     -4.511448   -0.559739    1.533881
C     -5.588792   -3.399359   -0.476191
F     -6.923255   -3.593249   -0.161538
F     -4.855944   -4.518722   -0.117094
F     -5.551319   -3.261173   -1.850567
N     -0.992055   -0.244521   -0.366353
C      0.372946   -0.561843   -0.386857
N      0.823298   -1.636008   -1.094157
C      2.113721   -2.008290   -1.143010
C      3.066265   -1.288632   -0.452205
C      2.606868   -0.193794    0.261781
N      1.311083    0.146062    0.285905
C      4.442465   -1.694609   -0.409676
N      4.950362   -2.853413   -0.840215
N      6.266356   -2.821413   -0.597242
C      6.562660   -1.648233   -0.024739
O      5.443788   -0.974439    0.084252
C      7.914584   -1.169693    0.420903
F      7.805698    0.103884    0.865473
F      8.700974   -1.204676   -0.740340
F      0.114957    5.909703   -1.152525
H     -0.939577    2.777411    1.946934
H     -0.201137    5.106584    1.290875
H     -0.432208    4.019463   -2.791884
H     -1.143228    1.780829   -2.179595
H     -1.464794    0.694430    1.469163
H     -3.527542    1.791815    0.601038
H     -3.234972    1.153045   -1.020459
H     -3.907122   -1.351036   -1.510395
H     -4.403836    0.094691    2.388538
H     -1.644336   -0.864339   -0.960269
H      2.420788   -2.881049   -1.720869
H      3.353335    0.373170    0.789789
H      8.288162   -1.912815    1.143227
