71

C      4.936668    6.595999    0.281992
C     -2.598385   -3.917224    1.145279
C      2.363701   -2.642374   -2.510662
C      3.392639   -4.470356   -1.213286
C      3.974378    5.408368    0.204720
C      4.672248    4.338838   -0.584780
C      3.852674    3.091944   -0.753740
C     -8.001338    1.503191    1.154301
C     -7.401658    1.989835    2.297270
C      3.502215    2.475588    0.592981
C     -7.195643    0.965606    0.167454
C     -6.039886    1.965462    2.501465
C     -1.043346   -4.433615   -0.911199
C     -5.017872    0.390959   -0.640260
C     -3.662958    0.378424   -0.412422
C      0.450856   -4.694154   -0.930677
C     -0.768051   -2.476946    0.472119
C      1.325676    1.279372    0.207617
C      3.308993    0.045894    0.142674
C     -3.890534    1.392329    1.691634
C     -1.470514   -3.594620    0.243984
C      2.697550    1.258297    0.311715
C     -5.832178    0.930272    0.348755
C     -5.260609    1.424785    1.503116
C     -3.083198    0.868742    0.734592
C      0.355524   -2.241349   -0.501319
C      1.224270   -3.482488   -0.453353
C      0.537529    0.177551   -0.050805
C      2.568734   -1.078487   -0.116651
C      1.165337   -1.054671   -0.220700
C     -1.622006    0.803228    0.869768
C      2.511064   -3.240009   -1.152180
O     -1.003142    1.223682    1.876453
O     -0.833266    0.251128   -0.151914
O      3.228717   -2.314952   -0.293487
H      4.828490    7.137720   -0.690099
H      4.680436    7.288419    1.089308
H      5.968313    6.193227    0.334775
H     -2.339998   -3.714126    2.221797
H     -3.439916   -3.202716    0.929575
H     -2.991903   -4.924503    1.010335
H      1.321776   -2.675609   -2.889808
H      2.785862   -1.596377   -2.564755
H      2.962990   -3.238530   -3.251399
H      4.172690   -4.268173   -1.967958
H      2.852739   -5.372867   -1.542900
H      3.902515   -4.617727   -0.249061
H      3.064001    5.698450   -0.344081
H      3.728339    5.101944    1.239006
H      5.639201    4.031943   -0.122823
H      4.905745    4.740731   -1.575699
H      2.898426    3.253933   -1.281093
H      4.453237    2.380477   -1.352394
H     -9.080988    1.547876    1.046075
H     -8.057101    2.408718    3.061009
H      4.416759    2.148171    1.124769
H      2.965530    3.168954    1.238545
H     -7.608531    0.578034   -0.730651
H     -5.569183    2.350787    3.405626
H     -1.559086   -5.412651   -0.822754
H     -1.275483   -3.914636   -1.870869
H     -5.457298    0.007837   -1.534012
H     -3.003845   -0.043979   -1.182916
H      0.659370   -5.517365   -0.219560
H      0.745434   -5.039348   -1.935482
H     -1.023023   -1.859082    1.300508
H      0.810414    2.240284    0.338417
H      4.378508   -0.013804    0.215910
H     -3.457356    1.779908    2.593613
H     -0.100991   -2.169484   -1.518552
H      1.479735   -3.594687    0.647142
