58

C      2.460702   -2.481449    2.445019
C      3.542880   -3.076661    1.625680
C      1.296294   -2.185566    1.849467
C      4.766010   -2.196016    1.634075
C     -5.072028    1.715580   -4.854623
C     -4.716887    2.226872   -6.077181
C     -4.175197    1.778377   -3.801286
C      0.181712   -1.591410    2.612107
C      5.247414   -2.039275    3.052941
C     -0.087408    1.449595   -1.015022
C     -0.705558    1.121082    0.125887
C     -2.572396    2.853935   -5.165940
C     -2.635493   -0.089144    1.984604
C     -0.786510    2.924569   -2.883804
C     -3.457951    2.804844   -6.249517
C     -0.091892    2.822006   -1.554238
C     -2.927135    2.341473   -3.938861
C     -0.231165   -0.239838    2.072275
C     -0.686079   -0.285655    0.654038
C     -1.438911    0.222089    2.843701
C     -2.130461   -0.756253    0.739547
C      5.583952   -3.362269    3.610216
Cl    -3.031655    3.449072   -7.820255
O      1.175875    3.384494   -1.670000
O     -1.500637   -0.460969    4.075588
O     -2.204129   -2.126333    0.897310
O      4.777958   -4.138448    4.166296
O      6.909822   -3.794340    3.514597
O     -2.088287    2.367831   -2.844566
H      2.568773   -2.279223    3.496573
H      3.829711   -4.057619    2.062059
H      3.204821   -3.251147    0.574819
H      1.207431   -2.402166    0.778090
H      5.599506   -2.701027    1.077012
H      4.522914   -1.212503    1.179954
H     -6.030847    1.259997   -4.671218
H     -5.387782    2.199848   -6.932084
H     -4.457130    1.375860   -2.842249
H     -0.698027   -2.260072    2.680111
H      0.525972   -1.423598    3.652361
H      4.449222   -1.552481    3.652644
H      6.152771   -1.374687    3.066555
H      0.420534    0.637223   -1.521734
H     -1.230899    1.892364    0.677182
H     -1.597745    3.301263   -5.298660
H     -3.205750    0.796933    1.708275
H     -3.313293   -0.795111    2.506024
H     -0.870602    3.996951   -3.154224
H     -0.191139    2.342855   -3.626560
H     -0.660121    3.483057   -0.842337
H      0.602494    0.486067    2.215318
H     -0.088420   -0.935821    0.005893
H     -1.363666    1.330620    3.032008
H     -2.719443   -0.404153   -0.135908
H      1.284272    3.951831   -2.459979
H     -2.151221    0.010733    4.674677
H     -3.041723   -2.515127    0.537228
H      7.236548   -4.662599    3.880114
