58

C      4.104312    1.563716   -1.028946
C      5.451601    1.471505   -1.624036
C      3.148436    0.693220   -1.333613
C      6.561359    1.331879   -0.652222
C     -7.896140    0.320020    0.988120
C     -8.153251    1.486268    0.293956
C     -6.755483   -0.380864    0.646247
C      1.814959    0.773437   -0.758718
C      6.518867    0.138992    0.234229
C     -2.115709   -1.041455   -0.524705
C     -1.031184   -1.161766    0.228519
C     -6.192627    1.247914   -1.032459
C      1.452704    0.364263    2.193350
C     -4.357131   -1.793431   -0.115877
C     -7.328230    1.957672   -0.701453
C     -3.045740   -2.190885   -0.807155
C     -5.911519    0.064701   -0.343874
C      1.280504   -0.370780    0.000052
C     -0.144105    0.012132    0.476541
C      1.921249   -0.747583    1.277127
C     -0.037291    0.337341    1.929490
C      6.568358   -1.110714   -0.544656
Cl    -7.682407    3.438754   -1.561029
O     -3.214903   -2.388626   -2.155276
O      3.241584   -1.017424    1.292325
O     -0.665967    1.530941    2.269402
O      6.389741   -2.235704    0.043514
O      6.801397   -1.180845   -1.908378
O     -4.760763   -0.593791   -0.725048
H      3.903506    2.377801   -0.318320
H      5.630237    2.327496   -2.337645
H      5.440934    0.575843   -2.294752
H      3.394134   -0.093611   -2.035665
H      7.557099    1.324539   -1.195310
H      6.594171    2.252574    0.003801
H     -8.549794   -0.049643    1.774459
H     -9.048976    2.044331    0.556398
H     -6.531486   -1.293470    1.172687
H      1.758843    1.705537   -0.102880
H      1.028213    1.024029   -1.546823
H      7.418168    0.211457    0.919972
H      5.610073    0.120243    0.888145
H     -2.308004   -0.065253   -0.934321
H     -0.817887   -2.133196    0.649810
H     -5.542567    1.607129   -1.807433
H      1.669915    0.143254    3.258340
H      1.830610    1.357545    1.902243
H     -4.102752   -1.555359    0.937377
H     -5.098123   -2.607738   -0.181297
H     -2.715004   -3.126632   -0.339419
H      1.209559   -1.273487   -0.649619
H     -0.474134    0.906468   -0.053017
H      1.386350   -1.667763    1.662076
H     -0.448080   -0.525432    2.500602
H     -4.134079   -2.122744   -2.473531
H      3.561589   -1.483815    0.492807
H     -1.631059    1.380525    2.431903
H      7.445923   -1.879518   -2.299808
