31

C      0.000582   -1.871032   -0.953651
C     -1.202301   -2.081295    1.123549
C      4.001398    0.197664    0.254024
C     -3.952590    1.525142   -0.214815
C      1.844368    0.316366    1.369878
C      0.409791    0.457677    1.510124
C      0.337147    0.769459   -0.966954
C     -0.499330   -1.248212    0.088897
C      2.510008    0.360640    0.243837
C     -2.636079    0.853723   -0.478541
C      1.782680    0.567195   -0.994882
C     -0.364570    0.214815    0.220453
O     -2.401354    0.268721   -1.562582
O      2.454315    0.562940   -2.080636
O     -1.620551    0.846721    0.456759
H     -0.116469   -2.973725   -1.024737
H      0.532358   -1.373178   -1.769231
H     -1.782587   -1.446724    1.794154
H     -1.858039   -2.803720    0.573265
H     -0.429030   -2.671845    1.672490
H      4.435846    1.025789   -0.335410
H      4.365986    0.276555    1.279184
H      4.205823   -0.801954   -0.203157
H     -3.767991    2.552411    0.209110
H     -4.464080    1.654673   -1.177546
H     -4.539787    0.983689    0.535028
H      2.428819    0.157935    2.284085
H      0.201049    1.495485    1.903729
H      0.046546   -0.224117    2.311582
H     -0.122938    0.508276   -1.924736
H      0.200979    1.899924   -0.901726
