29

C     -2.916209    0.981359    0.455171
C     -2.611403   -0.947690   -0.998905
C      3.279070    1.034069    0.086349
C      1.206074    0.854914    1.397143
C     -0.064008    0.955675    1.056443
C      0.223016   -0.961476   -0.448148
C     -2.009626   -0.173273    0.131948
C      2.225863    0.080674    0.660801
C     -0.590693    0.267022   -0.148789
C      1.689703   -0.739917   -0.450619
O      2.308233   -2.012537   -0.423477
H     -3.961981    0.607792    0.381094
H     -2.834212    1.805454   -0.283806
H     -2.773150    1.324075    1.486702
H     -2.154011   -0.755641   -1.979530
H     -2.575324   -2.041443   -0.780029
H     -3.710207   -0.723043   -1.119992
H      2.783058    1.843016   -0.487603
H      3.905377    1.456883    0.891269
H      3.893107    0.417801   -0.609830
H      1.517815    1.386262    2.290882
H     -0.754798    1.558996    1.670135
H     -0.074221   -1.297633   -1.482976
H     -0.082220   -1.748025    0.255764
H     -1.990961   -0.827013    1.044105
H      2.776384   -0.557198    1.400318
H     -0.632299    0.984519   -0.987980
H      1.986170   -0.316311   -1.454727
H      1.941457   -2.457311    0.397523
