32

C     -2.598094    1.193109   -0.048140
C     -3.938230    0.916603    0.643402
C     -1.228504   -0.221419   -1.604723
C      0.258735   -1.735958   -0.319990
C      0.665190    0.584560   -0.291121
C     -0.101662   -0.473445   -0.736846
C     -2.540770    0.021171   -0.965849
C      1.342764   -1.958489    0.512565
C      1.762567    0.370931    0.550310
C     -3.840876   -0.552308    0.834449
C      2.103002   -0.903254    0.953695
O      1.682869   -3.241226    0.916711
O     -4.408686   -1.194449    1.749929
O      3.205051   -1.067440    1.792784
O      5.253655    1.253138    0.599965
O      4.024226    3.507125    0.344970
O      3.648385    1.807252   -1.345520
O     -3.021579   -1.033548   -0.176232
O      2.513306    1.447428    0.981858
S      3.864183    2.028158    0.123636
H     -1.830605    1.159315    0.754182
H     -2.641645    2.158265   -0.566431
H     -4.723312    1.093361   -0.117329
H     -4.056938    1.475038    1.564977
H     -1.355492   -1.072652   -2.326236
H     -0.995938    0.659554   -2.248155
H     -0.333379   -2.549640   -0.664553
H      0.430215    1.601824   -0.585786
H     -3.284543    0.187965   -1.775693
H      1.122506   -4.017825    0.591410
H      3.504135   -1.975495    2.122250
H      5.519463    0.532353   -0.037895
