101

C      8.308614   -3.814107   -0.950823
C     -8.593863    0.912441   -3.916443
C     -8.070395   -1.242138    2.919196
C    -11.225983   -0.891594   -0.544415
C      7.293411   -2.662529   -0.912575
C      2.018870   -2.337863    1.987565
C      1.265750   -2.884273    0.966278
C      1.579784   -1.157061    2.539636
C      7.405433    4.653009    2.114467
C      8.072203    3.467239    2.382258
C      1.853861    2.581211   -1.189761
C      0.119094   -2.272104    0.514663
C      0.428557   -0.552439    2.080017
C      6.281172    4.582226    1.283810
C      7.636403    2.258836    1.842437
C     -1.291076    0.765653   -0.233230
C     -2.483020   -0.117100    1.762420
C      1.541569    1.527574   -0.161399
C      3.122481    2.231323   -1.940935
C     -0.291750    0.497602   -1.303320
C     -3.826366   -0.698605    1.400586
C      1.943266   -0.328163   -1.629272
C      3.395805   -0.162854   -1.128517
C      6.351240   -0.125387    0.406882
C      7.410277   -0.323820   -0.689457
C     -6.975391   -0.053289   -1.804909
C     -6.787800   -0.747461    0.426366
C     -2.381910   -1.401426   -0.225235
C     -6.153064   -0.519189   -0.767128
C     -0.321601   -1.082619    1.071399
C      5.861969    3.380781    0.757523
C      6.527948    2.204449    1.025601
C     -8.312394    0.166077   -1.654823
C     -8.161563   -0.536721    0.616399
C     -8.933518   -0.074998   -0.433731
C     -4.767380   -0.810696   -0.999669
C      4.836097    1.705806   -0.288444
C     -1.552957   -0.439007    0.612777
N      4.860455    3.055018   -0.025551
N      1.025028    0.287535   -0.715973
N      3.822287    1.191285   -1.115262
N     -3.761817   -0.933658   -0.027719
N      5.850066    1.215243    0.351926
O     -4.414255   -0.976633   -2.218864
O     -9.140617    0.631710   -2.666573
O     -8.803294   -0.772710    1.817233
O    -10.300763    0.150004   -0.275897
O      8.013186   -1.519698   -0.735335
Cl     0.682891    0.000000    0.000000
Cl     0.692380    0.000000    0.000000
H      7.837551   -4.776313   -1.151813
H      8.890313   -3.887918   -0.014113
H      9.065099   -3.583024   -1.759472
H     -9.404412    0.958180   -4.704262
H     -7.873538    0.151131   -4.225129
H     -8.124656    1.938738   -3.944345
H     -8.789944   -1.642339    3.706366
H     -7.456797   -0.456680    3.422784
H     -7.383096   -2.088683    2.667387
H    -10.714816   -1.834486   -0.898985
H    -11.808722   -1.172206    0.355047
H    -11.908619   -0.609144   -1.383293
H      6.609450   -2.902423   -0.062595
H      6.723560   -2.730409   -1.840477
H      2.915120   -2.781781    2.367922
H      1.609294   -3.824143    0.527820
H      2.135226   -0.688572    3.343660
H      7.730728    5.600974    2.521187
H      8.948413    3.456020    3.021244
H      0.985180    2.788914   -1.798963
H      2.096312    3.496905   -0.612380
H     -0.429784   -2.727534   -0.281215
H      0.118625    0.390274    2.551399
H      5.739406    5.484298    1.047543
H      8.154928    1.328296    2.052040
H     -2.242178    1.092836   -0.761117
H     -1.071876    1.620033    0.428734
H     -2.492458    0.977350    1.893344
H     -2.094294   -0.541079    2.718755
H      2.427899    1.234394    0.432022
H      0.821994    1.922541    0.545586
H      3.802678    3.065365   -2.096546
H      2.869069    1.757328   -2.877259
H     -0.252794    1.288914   -2.066927
H     -0.499770   -0.464764   -1.851609
H     -4.016623   -1.586990    1.997058
H     -4.540347    0.156521    1.586133
H      1.851143    0.105505   -2.635046
H      1.743280   -1.423294   -1.649900
H      3.404128   -0.571689   -0.086239
H      3.982672   -0.831629   -1.824820
H      5.652728   -0.929219    0.288433
H      6.888307   -0.341185    1.369820
H      6.926532   -0.137016   -1.703472
H      8.176633    0.486849   -0.630927
H     -6.503344    0.145167   -2.766739
H     -6.273612   -1.143862    1.292216
H     -2.135509   -1.389215   -1.288117
H     -2.363125   -2.407817    0.242028
H     -0.682891    0.000000    0.000000
H     -0.692380    0.000000    0.000000
