111

C      4.396808   -0.100654    0.871967
C      4.983249    1.092404   -2.689425
C     -6.151369   -0.671174   -0.018154
C     -5.476976   -0.086847    3.314627
C      3.365468   -4.824751   -2.284079
C     -2.903449   -4.911543    3.052768
C     -1.797791   -5.824023   -1.952962
C      1.058778   -0.147186    2.765483
C     -1.239723   -0.407323   -2.705519
C     -1.799871    6.851148   -2.099817
C     -0.716548    6.063914   -1.751994
C     -3.055753    6.333902   -1.909988
C      5.558183    4.929403    0.233612
C     -0.907546    4.785559   -1.225502
C     -3.225084    5.073209   -1.390404
C      4.701802    4.320688    1.125705
C      6.134773    4.154220   -0.739212
C      1.062913    1.922765    1.491070
C     -2.610265   -2.021816   -0.422249
C      4.912170    0.769103   -0.206638
C      4.213301    0.485651   -1.531559
C     -4.985751   -1.484685   -0.442487
C     -4.012198   -0.323756    3.399950
C      2.756871   -3.765964   -1.459071
C     -1.868036   -3.881346    2.690145
C     -1.115213   -4.914033   -1.021959
C     -2.167204    4.266994   -1.035179
C      4.413362    2.942012    1.056615
C     -1.113322    0.741416    1.863591
C      5.005864    2.214754    0.081444
C     -1.762220   -0.499438    2.370916
C      0.990289   -2.104082   -0.925401
C     -1.593424    0.842890    0.396584
C      1.012354   -0.815858   -1.686691
C     -1.387543   -1.746701    1.647786
C     -0.276069   -2.651803   -0.422797
C      2.800698    0.974561   -1.496283
C     -2.326533    2.952883   -0.493210
C      3.466390    2.481416    2.082187
C      0.362972    0.578189    1.613166
C     -0.340611   -0.073816   -1.598954
C     -1.285195   -1.627259    0.135742
C     -0.783859   -0.256133   -0.181725
N      5.843563    2.854062   -0.778038
O     -5.175399   -2.453938   -1.244117
O     -3.477218   -0.588109    4.530720
O      3.367124   -3.412153   -0.419927
O     -0.676811   -4.078912    3.002389
O     -0.673889   -5.323053    0.059694
O      2.685658    2.174423   -1.883208
O     -3.521668    2.524535   -0.338826
O      3.815466    2.862659    3.270582
O     -0.114594    1.323090   -1.751169
O     -3.713314   -1.244863   -0.014393
O      2.348182    1.754287    1.938183
O     -3.168577   -0.278463    2.326054
O      1.568998   -3.139962   -1.748234
O     -2.284640   -2.769335    2.030792
O     -0.913216   -3.603253   -1.247419
O     -1.283729    2.116354   -0.125832
O      1.878966    0.112184   -1.074803
O      0.468354   -0.198740    0.520755
H      3.336922   -0.435399    0.709362
H      4.953897   -1.090955    0.813592
H      4.614140    0.256216    1.879314
H      4.858710    0.438497   -3.598050
H      6.068632    0.983195   -2.420002
H      4.729787    2.138946   -2.880847
H     -6.664903   -1.066704    0.858461
H     -6.915819   -0.614346   -0.835445
H     -5.863481    0.379865    0.183898
H     -5.949308   -1.081365    3.148566
H     -5.743206    0.663631    2.562354
H     -5.819061    0.216044    4.347400
H      4.466531   -4.856969   -2.151642
H      3.176138   -4.686609   -3.368541
H      2.959926   -5.800414   -1.923328
H     -3.775036   -4.843577    2.374359
H     -3.255365   -4.633275    4.066721
H     -2.492581   -5.932436    3.029127
H     -1.492596   -5.642396   -3.015892
H     -2.903055   -5.621747   -1.839345
H     -1.598069   -6.859736   -1.660228
H      1.814754    0.516671    3.283826
H      1.704696   -0.988483    2.371646
H      0.402697   -0.463818    3.565798
H     -2.244402   -0.039997   -2.522102
H     -1.146847   -1.432172   -3.114286
H     -0.899800    0.217199   -3.600838
H     -1.641587    7.855790   -2.513450
H      0.264295    6.465245   -1.899157
H     -3.906928    6.926548   -2.172545
H      5.766197    6.011866    0.310489
H     -0.025568    4.226399   -0.976186
H     -4.225450    4.642048   -1.231166
H      4.281860    4.976717    1.882445
H      6.806507    4.630445   -1.440326
H      0.986959    2.376040    0.485853
H      0.404656    2.599520    2.119760
H     -2.684047   -2.118387   -1.504530
H     -2.905383   -3.061350   -0.024654
H      5.975460    0.397051   -0.407479
H      4.239948   -0.611708   -1.682402
H     -1.388837    1.613156    2.444390
H     -1.573765   -0.702834    3.450103
H      1.737268   -2.014003   -0.105149
H     -2.682084    0.691832    0.437798
H      1.252229   -1.043460   -2.742142
H     -0.386353   -2.084812    1.984654
H     -0.016091   -3.289078    0.454446
H      0.129464    1.525403   -2.689928
