117

C      3.593928   -2.135967    2.133367
C      2.993417   -1.493622    4.662379
C     -2.000045    4.047809   -4.508266
C     -3.946597   -0.092980   -5.764412
C     -5.412315    3.231531   -2.355636
C     -0.912833    5.658296   -1.761282
C     -3.540626   -2.699902   -0.878730
C     -1.143246   -0.814822    2.501666
C      4.807206   -4.880797   -0.723893
C      3.548387   -5.041874   -0.214733
C      5.085208   -3.730265   -1.430514
C      3.484868    7.055427    2.382204
C      2.065664   -6.520270    3.579089
C      2.621999   -4.053358   -0.429615
C      4.149518   -2.749591   -1.637814
C      2.469540    6.113093    2.489835
C      0.937740   -5.971401    2.999708
C      4.314980    6.959575    1.292145
C      3.137912   -5.697026    3.794184
C      3.136134    5.060536    0.486957
C     -1.330488   -3.473017   -0.295708
C     -0.810908    1.361688   -2.035376
C      2.151131   -2.391623    2.572931
C      1.839358   -1.507157    3.690417
C     -1.259322    2.951820   -3.832363
C     -3.845246   -0.471593   -4.332534
C     -4.756397    2.172444   -1.554695
C     -1.451116    4.593541   -0.878085
C      2.849175   -2.888736   -1.125578
C      2.292008    5.123337    1.554823
C      0.835200   -4.612606    2.618832
C     -1.543039   -1.446740   -1.836601
C      1.923751   -3.853023    2.856171
C     -2.610025   -0.501653   -2.169777
C     -0.123519    2.234101    1.053234
C     -0.335886   -0.852353   -1.021181
C      0.370165    0.845928    1.364322
C     -2.838343    0.689063   -1.228207
C     -1.248254    2.278954    0.049425
C      1.397753   -0.149063    3.478132
C      1.886022   -1.837053   -1.342188
C      1.213846    4.176853    1.731497
C     -0.480601   -4.272200    2.032758
C     -2.085803   -2.245377   -0.629942
C     -0.904864    0.090942    1.377212
C     -1.505436    1.054262   -0.727298
C     -1.128574   -0.261343   -0.020973
N      4.138454    5.980636    0.367934
N      3.038347   -4.419989    3.435912
O     -0.254958    2.444808   -4.398917
O     -4.801565   -1.117353   -3.792712
O     -5.286437    1.679398   -0.519661
O     -2.493499    4.768860   -0.193820
O      1.284450    0.454041    4.641560
O      2.200328   -0.874718   -2.083917
O      0.443396    4.263195    2.749753
O     -1.490037   -4.703121    2.770978
O     -2.017865    1.002021    1.673573
O     -1.622882    2.447399   -2.587518
O     -0.838460   -3.630369    0.939677
O     -2.781895   -0.174320   -3.536619
O     -3.528176    1.693487   -1.931873
O     -0.820563    3.398034   -0.790295
O      0.920316    3.129774    0.856202
O      0.599172   -1.804473   -0.786534
O      1.082965    0.641475    2.466123
O     -2.190973   -1.177629    0.178315
H      4.114976   -3.069960    1.836371
H      4.111271   -1.567947    2.899410
H      3.593763   -1.480534    1.211332
H      2.606889   -1.382070    5.720519
H      3.621438   -2.397383    4.640728
H      3.612756   -0.582456    4.518096
H     -2.903737    4.324289   -3.962403
H     -1.302108    4.917778   -4.564848
H     -2.187510    3.753185   -5.561131
H     -4.783163    0.596370   -5.927193
H     -2.993663    0.241102   -6.180955
H     -4.200119   -1.043717   -6.317465
H     -5.062624    3.118745   -3.391245
H     -6.515003    3.159758   -2.253216
H     -5.034858    4.216149   -1.984697
H     -1.681690    6.137356   -2.393079
H     -0.148543    5.226762   -2.437985
H     -0.368404    6.437333   -1.154723
H     -3.715824   -3.059589   -1.883451
H     -4.283278   -2.020176   -0.434826
H     -3.672600   -3.621589   -0.224164
H     -2.248715   -1.127069    2.571702
H     -0.609950   -1.692175    2.671730
H     -1.062552   -0.183772    3.445003
H      5.545387   -5.651830   -0.560158
H      3.290531   -5.920846    0.342155
H      6.094568   -3.641201   -1.817259
H      3.614616    7.834726    3.128911
H      2.079612   -7.582413    3.849639
H      1.629209   -4.207138   -0.033213
H      4.433101   -1.874226   -2.200743
H      1.824909    6.224765    3.377178
H      0.121338   -6.681683    2.868393
H      5.123683    7.695404    1.190668
H      4.031384   -6.124258    4.250749
H      3.022969    4.305379   -0.254288
H     -0.496471   -3.588605   -1.071742
H     -1.901577   -4.414215   -0.613358
H      0.156402    1.848208   -1.927253
H     -0.894905    0.695359   -2.862747
H      1.545431   -2.244541    1.659605
H      1.015474   -2.026854    4.286720
H     -1.231604   -2.040633   -2.660612
H     -3.599459   -1.053428   -2.016202
H     -0.617901    2.559949    2.030775
H      0.245651   -0.178044   -1.713018
H      1.065142    0.508073    0.521636
H     -3.487657    0.411301   -0.374203
H     -2.182497    2.754406    0.470864
H     -2.785636    0.437008    1.859946
