111

C      4.147375    2.333068   -0.792516
C      3.509589    3.470029   -3.027179
C      1.715903   -4.359430   -0.600970
C     -4.375590   -3.348764    4.283575
C      1.236629   -3.530993   -4.748919
C     -5.971811   -3.390493   -0.067160
C     -2.789723   -5.040872   -2.713845
C     -3.118961    1.734690    2.489152
C     -0.695831    2.301795   -1.133329
C      5.704028    1.265678    3.126208
C      4.472088    1.817379    3.423327
C      5.737103    0.094439    2.402722
C      2.382247    6.861730    0.298825
C      3.362644    1.176148    2.983627
C      4.602915   -0.540045    1.965567
C      1.837420    5.903657    1.138745
C      2.988133    6.435611   -0.844836
C     -0.799713    2.320142    2.590713
C     -1.228026   -2.531509    0.232462
C      2.704831    2.770382   -0.837406
C      2.340052    2.850906   -2.300372
C      0.371006   -4.500982    0.046188
C     -4.042323   -2.119976    3.493157
C      0.372072   -2.397661   -4.324462
C     -5.077315   -2.186947   -0.007993
C     -2.888680   -3.547789   -2.544136
C      3.337736    0.003242    2.251662
C      1.876877    4.510897    0.877063
C     -1.407589   -0.132697    2.308285
C      2.485978    4.160111   -0.263548
C     -2.640378   -0.846554    1.974325
C     -0.571485   -1.069881   -2.479435
C     -0.272599   -0.304984    1.258704
C      0.245182    0.048729   -1.857507
C     -2.991230   -1.044790    0.487107
C     -1.793276   -1.462254   -1.725050
C      1.904331    1.644093   -2.959470
C      2.116127   -0.532521    1.769999
C      1.278103    3.717103    1.970750
C     -1.689798    1.344728    1.946560
C     -0.747874    0.823527   -1.104811
C     -1.729485   -1.183552   -0.238223
C     -1.018316    0.095534    0.141940
N      3.024412    5.114813   -1.094948
O     -0.593972   -4.591110    0.506852
O     -4.839587   -1.137077    3.559863
O     -0.229466   -1.665807   -5.130633
O     -5.484516   -1.051595   -0.397686
O     -3.881157   -2.902366   -2.921020
O      2.672484    1.262366   -3.939276
O      2.083857   -1.729157    1.437308
O      1.833343    4.070080    3.138106
O     -2.052081    0.730235   -1.806902
O      0.005465   -2.839782   -0.319235
O      0.352247    2.767242    2.051117
O     -2.937337   -2.015684    2.719095
O      0.225898   -2.132134   -2.965063
O     -3.774847   -2.235525    0.466704
O     -1.843731   -2.910834   -1.953730
O      0.914213    0.209151    1.644298
O      0.861779    0.838444   -2.764498
O     -1.875438    1.133273    0.660673
H      4.380098    1.751552   -1.714138
H      4.867718    3.122065   -0.541710
H      4.298031    1.548914    0.026357
H      4.412117    3.622850   -2.402893
H      3.233827    4.430568   -3.561786
H      3.862758    2.806007   -3.882009
H      1.944374   -5.418147   -1.005004
H      1.835232   -3.732437   -1.455591
H      2.495195   -4.241135    0.192929
H     -3.492183   -3.970696    4.462982
H     -5.125886   -3.986267    3.764546
H     -4.877063   -3.065129    5.252929
H      1.081689   -4.416691   -4.115437
H      0.975540   -3.824141   -5.798324
H      2.321907   -3.256042   -4.640003
H     -6.752000   -3.153930   -0.814591
H     -6.351375   -3.530287    0.946627
H     -5.397220   -4.259286   -0.468890
H     -2.077538   -5.481374   -1.979889
H     -2.382267   -5.312553   -3.704447
H     -3.763178   -5.524703   -2.533836
H     -3.880402    1.635007    1.728531
H     -3.279966    1.367359    3.485462
H     -3.044477    2.865248    2.612592
H     -1.707487    2.767853   -0.861691
H     -0.619846    2.593054   -2.213518
H     -0.023507    2.853904   -0.546337
H      6.616183    1.785414    3.479112
H      4.411474    2.744756    3.999646
H      6.743456   -0.286712    2.204914
H      2.318538    7.933816    0.566674
H      2.406309    1.587197    3.282873
H      4.671992   -1.458497    1.401561
H      1.382666    6.314031    2.031885
H      3.437154    7.159265   -1.527521
H     -1.401985    3.195748    3.046202
H     -0.550757    1.816987    3.614344
H     -1.331876   -2.783540    1.284397
H     -1.927079   -3.262838   -0.220673
H      2.140561    2.103316   -0.221829
H      1.509709    3.617298   -2.368833
H     -1.091562   -0.299004    3.312420
H     -3.502776   -0.187669    2.277103
H     -0.973346   -0.576333   -3.427672
H      0.016432   -1.420632    1.271028
H      1.066080   -0.383287   -1.213278
H     -3.575417   -0.188976    0.077694
H     -2.769692   -1.211272   -2.175170
H     -1.870086    1.083906   -2.708264
