55

C     -0.889716    0.274016    2.631901
C      3.687588    1.133652   -0.850395
C      2.760236    1.322049    1.377091
C      1.470861   -2.255906   -1.162203
C     -1.294396   -0.511890   -2.310914
C     -3.020448   -0.228904    1.489768
C     -3.846016    0.344514    0.352008
C     -0.144055    1.886262   -1.204439
C     -1.623242    1.703991   -1.367582
C      3.303520   -0.888725    0.541446
C      2.058348   -1.553762    1.086442
C     -0.338009   -1.337001    0.316602
C     -1.650980    0.446943    1.367891
C      0.267684    0.975165   -0.038822
C     -3.226778   -0.113437   -0.919259
C      1.428666    0.143542   -0.427699
C      2.748344    0.481741    0.149058
C      1.096872   -1.293117   -0.076071
C     -1.773022    0.204728   -1.078369
C     -0.932286    0.028910    0.126632
O     -3.498203   -1.471528   -1.108213
H      0.157842    0.606714    2.555435
H     -1.370335    0.963385    3.387610
H     -0.976765   -0.730653    3.096861
H      4.008426    0.419417   -1.629897
H      3.193713    2.010944   -1.265637
H      4.601087    1.437438   -0.299719
H      3.841977    1.629176    1.529856
H      2.522626    0.770876    2.314695
H      2.230006    2.292249    1.295275
H      2.342712   -2.918002   -0.887534
H      0.646496   -2.960550   -1.394982
H      1.805033   -1.670968   -2.042889
H     -1.160620   -1.597441   -2.172841
H     -0.448707   -0.012316   -2.824565
H     -2.148608   -0.435062   -3.051978
H     -3.431354    0.004710    2.480353
H     -2.852777   -1.307732    1.393014
H     -4.849284   -0.082099    0.435284
H     -3.860811    1.435240    0.467992
H      0.443105    1.676014   -2.111940
H      0.030355    2.957991   -0.963733
H     -1.970095    1.848527   -2.405391
H     -2.170600    2.316467   -0.634043
H      3.622833   -1.434243   -0.346000
H      4.095571   -0.791659    1.309154
H      1.733457   -1.114733    2.026383
H      2.198757   -2.639734    1.247527
H     -0.876534   -2.137477   -0.231533
H     -0.376342   -1.653988    1.390555
H     -1.893376    1.541784    1.245534
H      0.381583    1.631773    0.819119
H     -3.766840    0.411333   -1.760845
H      1.557803    0.153627   -1.551655
H     -3.845307   -1.912252   -0.314339
