33

C     -3.847613    1.503086    0.114490
C      0.891729    2.602064   -1.254383
C      0.464027   -2.199309    0.089640
C      1.802451   -1.907767    0.195312
C      0.033032    0.002215   -0.616622
C     -2.811964   -0.445188   -0.644490
C     -0.475935   -1.242405   -0.324703
C     -1.904612   -1.619691   -0.427471
C      2.273272   -0.646792   -0.106592
C      1.391215    0.320236   -0.515683
N     -2.965739    0.415240    0.476742
O     -2.343694   -2.432206    0.615104
O      5.485535   -0.855270    1.989967
O      5.083774    1.521986    1.038370
O      3.367960    0.499859    2.506618
O      1.803809    1.606512   -0.833225
O      3.622276   -0.346303   -0.001820
S      4.348280    0.251111    1.410032
H     -4.423022    1.898912    0.977414
H     -4.512425    1.138940   -0.694757
H     -3.236897    2.330587   -0.352070
H      0.604650    2.502780   -2.325920
H     -0.005675    2.664642   -0.582353
H      1.435633    3.582112   -1.153560
H      0.083483   -3.196401    0.327184
H      2.473168   -2.690694    0.520289
H     -0.656783    0.768398   -0.945876
H     -2.480314    0.149255   -1.518723
H     -3.849550   -0.780417   -0.931441
H     -2.000452   -2.260324   -1.354225
H     -2.119652    0.790886    0.905199
H     -3.322797   -2.521094    0.494943
H      5.792830   -1.404961    1.212184
