51

C     -2.998690   -3.086968    0.978399
C     -3.410109   -1.760485   -1.281824
C     -1.012140   -1.659412   -1.461057
C     -2.092105   -2.172864    0.736476
C     -2.528743    4.402360    1.255202
C     -3.693957    4.379273    0.523360
C     -1.716777    3.286365    1.354016
C     -4.029977    3.204005   -0.112279
C      4.929304   -1.692695    0.472217
C      4.658071   -0.550079    1.438778
C     -0.244059    0.545742    1.389354
C     -2.047883    2.095374    0.716015
C     -1.434014    0.834348    0.649911
C     -3.213943    2.080592   -0.013483
C      0.922073    0.348220    0.816941
C      4.223974   -1.231676   -0.801236
C     -2.271887    0.074435   -0.139531
C      2.116054    0.047064    1.654894
C      2.245192    0.292030   -1.180255
C     -2.125036   -1.359555   -0.511257
C      3.490343    0.021629   -0.473449
N     -3.329036    0.848608   -0.522455
N      1.144926    0.430598   -0.555064
N      3.325332   -0.132357    0.973817
O      3.407667   -2.234819   -1.311453
O      1.982106   -0.027371    2.897495
O      2.281404    0.398951   -2.598596
O      4.350040    1.103674   -0.741802
H     -3.794071   -3.288997    0.298624
H     -2.886358   -3.635926    1.933962
H     -3.245865   -2.813923   -1.569357
H     -4.308164   -1.611011   -0.690246
H     -3.426992   -1.185402   -2.233318
H     -1.310292   -2.482633   -2.154423
H     -0.828606   -0.749726   -2.078214
H     -0.082494   -1.999141   -0.955792
H     -1.271021   -1.972718    1.451573
H     -2.268778    5.325427    1.752945
H     -4.327048    5.267656    0.454806
H     -0.812251    3.305576    1.924956
H     -4.946236    3.189436   -0.687488
H      6.010792   -1.766363    0.323885
H      4.483027   -2.625938    0.879677
H      5.375530    0.276013    1.266072
H      4.679743   -0.832415    2.487992
H     -0.251113    0.474451    2.503851
H      5.016390   -1.032722   -1.546400
H     -4.105255    0.536477   -1.118526
H      4.006015   -2.868803   -1.780964
H      1.452955    0.044671   -3.102132
H      3.911959    1.961024   -0.586066
