65

C     -5.082583   -0.258284    1.446469
C     -3.125611   -0.878608    2.765351
C      4.059435    1.334987   -0.395740
C      0.722300    4.223163   -0.066834
C      2.384433   -2.772703   -2.809122
C      0.107423    0.474721   -1.569204
C      2.602275    1.624424    1.983694
C      3.051657   -2.280250    0.063239
C      2.979385    0.146650    1.632848
C      3.545437   -1.011389   -0.454627
C      1.660569    2.220257    1.341271
C      1.642812   -2.635809   -0.358386
C     -0.624803    2.332239    0.491870
C     -0.851159    1.042070    1.139872
C      0.161063   -2.081655   -2.192461
C     -3.365366    0.570152   -0.751813
C     -0.966671   -1.754329   -1.316168
C     -2.319542    0.257777   -1.788508
C     -3.592304    0.043284    1.690421
C      3.520809    0.106597    0.256417
C      0.637146    2.888863    0.653325
C      1.354344   -2.481751   -1.775860
C     -2.908417   -0.237125    0.409410
C     -1.417765   -0.076093    0.383890
C     -1.104838   -0.246266   -1.044502
H     -5.176226   -1.264473    1.003137
H     -5.619920   -0.149035    2.408510
H     -5.471338    0.502798    0.741276
H     -3.883014   -1.669064    2.982990
H     -3.041650   -0.279977    3.717412
H     -2.138677   -1.315440    2.590531
H      4.057438    2.180498    0.353402
H      3.441412    1.669323   -1.245186
H      5.117710    1.181082   -0.652256
H      0.053934    4.236938   -0.943197
H      1.767029    4.368748   -0.395793
H      0.399837    4.998582    0.649622
H      3.309187   -3.115599   -2.306290
H      2.020072   -3.655291   -3.419170
H      2.560307   -1.927311   -3.499515
H      0.573133   -0.086710   -2.433222
H     -0.053071    1.530936   -1.808154
H      0.871040    0.416503   -0.772174
H      3.284083    1.859485    2.786057
H      3.104996   -2.383515    1.163249
H      3.729271   -3.103017   -0.315656
H      3.745674   -0.255554    2.298699
H      2.102690   -0.507358    1.796802
H      3.947022   -0.982539   -1.459220
H      1.867829    3.452495    2.030552
H      0.977686   -2.106705    0.325749
H      1.487294   -3.730088   -0.117717
H     -1.378948    2.813992   -0.082079
H     -1.582663    1.274187    1.979890
H      0.048616    0.713611    1.751047
H     -0.010980   -1.979286   -3.278377
H     -4.369053    0.225051   -1.100381
H     -3.402024    1.658815   -0.532988
H     -0.933174   -2.328410   -0.348693
H     -1.904417   -2.131188   -1.813371
H     -2.730453   -0.546678   -2.442906
H     -2.088188    1.123623   -2.440908
H     -3.591169    1.098169    2.024048
H     -3.120622   -1.310181    0.159103
H     -1.040703   -1.028337    0.910324
