65

C     -4.632883    0.957622    1.189945
C     -5.369017    0.871955   -1.122928
C      5.759599    1.376246    0.536344
C      0.456824    4.471767    1.420657
C      2.051059   -4.548215   -0.026739
C     -1.841060   -1.927310    0.571521
C      2.386031    1.700159    0.161166
C      3.468903   -1.948118    0.785867
C      3.594602    1.252726   -0.579854
C      4.431340   -0.778811    0.786892
C      1.496466    2.628695    0.142004
C      3.162624   -2.573533   -0.538325
C     -0.759637    2.248049    1.346482
C     -1.297062    0.842143    1.158154
C      0.569115   -2.552602   -0.631955
C     -2.892298    0.137199   -2.109205
C     -0.031379   -1.217214   -1.020148
C     -2.428402   -1.221767   -1.663954
C     -4.257255    0.416465   -0.152756
C      4.563364    0.408665    0.314373
C      0.263368    2.980610    1.002435
C      1.711980   -3.103419   -0.439221
C     -2.991391    0.849183   -0.740161
C     -1.691119    0.455120   -0.197803
C     -1.447519   -1.006512   -0.528913
H     -4.525215    0.190301    2.005228
H     -4.175322    1.931950    1.442488
H     -5.745717    1.183447    1.242981
H     -5.708307    0.059825   -1.770486
H     -5.009045    1.764936   -1.713393
H     -6.258597    1.239168   -0.571099
H      5.651804    2.215661   -0.253720
H      6.743159    1.044508    0.307523
H      5.618478    1.970885    1.460505
H     -0.340096    5.110718    1.634097
H      1.203638    4.534879    2.240201
H      0.967871    5.019468    0.559704
H      2.755503   -4.991464   -0.814555
H      1.376607   -5.305717    0.167381
H      2.721030   -4.509308    0.902286
H     -2.341944   -2.808528    0.120608
H     -0.985142   -2.234693    1.209201
H     -2.603280   -1.494659    1.265419
H      2.375728    0.811291    0.941363
H      3.888421   -2.830458    1.377362
H      2.552409   -1.715112    1.406402
H      4.160046    2.166512   -0.879001
H      3.446403    0.781700   -1.559690
H      5.224559   -1.298951    1.498702
H      1.487818    3.440602   -0.680019
H      3.412209   -1.870516   -1.299766
H      3.871883   -3.428475   -0.776516
H     -1.633486    2.612629    2.024730
H     -0.575820    0.119656    1.575303
H     -2.200398    0.658387    1.814848
H     -0.445906   -3.154152   -0.529211
H     -2.168500    0.681112   -2.717450
H     -3.852822    0.086839   -2.612623
H      0.495005   -0.309764   -0.700683
H     -0.076530   -1.100599   -2.131893
H     -1.902464   -1.709057   -2.519679
H     -3.299943   -1.819873   -1.380402
H     -4.405022   -0.685077   -0.094730
H     -3.034375    1.925238   -0.983057
H     -0.940891    0.997584   -0.872240
