97

C     -2.571314   -2.313667    4.186483
C     -3.306778    3.778792   -4.707155
C     -5.658345    4.572235   -4.093305
C     -5.756310   -3.699108    2.227819
C     -4.587352   -5.387320    0.770062
C      5.323578    0.249091    4.082191
C     -0.516530   -0.430296    3.528587
C     -2.117325    1.295320    4.077638
C     -2.816641   -1.030857    4.121144
C     -4.955854    2.284514   -3.735634
C     -5.206812   -3.195025   -0.137018
C     -4.019912    1.122898   -3.749785
C     -5.763877   -1.852924   -0.132364
C      7.240160   -0.377234    2.634218
C     -4.834613   -0.331479   -1.880226
C     -2.969709    1.045003   -1.457858
C      4.719689    0.312181   -3.290438
C      6.570337   -0.275410   -4.699314
C     -0.988410    1.817956    0.922108
C      3.712161    0.659450   -0.679580
C     -4.647886    3.480674   -4.161342
C     -5.201636   -3.999035    0.887883
C      5.950950    0.028885    2.755912
C     -3.920152    0.622680   -2.348588
C     -4.775080   -0.816024   -0.588432
C      5.266197    0.128905   -4.539289
C      5.494099    0.086284   -2.185457
C     -2.894985    0.563429   -0.139658
C     -2.052958    0.837396    0.930538
C      4.955483    0.270798   -0.808967
C      0.290432    1.498484    0.844568
C      7.844204   -0.589346    1.382717
C      7.347164   -0.501140   -3.539820
C      6.809948   -0.320900   -2.276967
C      5.749834    0.046233    0.392165
C      7.073939   -0.369779    0.250104
C     -3.809890   -0.372599    0.282474
C      7.619292   -0.557081   -1.089912
C      5.174153    0.250397    1.622695
C     -2.461047    0.069023    1.998891
C      1.334461    2.522906    0.845431
C      1.932894   -0.145172    0.646371
C     -1.962085   -0.033437    3.381563
C      3.039888    0.879921    0.649666
N      0.712637    0.156596    0.735763
N     -3.516955   -0.643491    1.570605
N      2.554802    2.227863    0.757161
O      4.519640    0.345750   -5.711750
O      9.134713   -0.994757    1.309365
O      8.618935   -0.895308   -3.752919
O      8.801409   -0.926790   -1.172640
O      0.889815    3.857373    0.949871
O      2.361832   -1.479394    0.534944
O      3.879198    0.661180    1.741541
H     -3.248597   -2.947970    4.745664
H     -1.703812   -2.713721    3.683353
H     -2.552136    3.513793   -3.957741
H     -3.124387    3.212620   -5.663467
H     -3.226159    4.864768   -5.014463
H     -6.634203    4.176581   -3.716888
H     -5.799449    5.111192   -5.027431
H     -5.289117    5.276970   -3.313452
H     -6.444975   -2.839622    2.262178
H     -4.897071   -3.451546    2.898921
H     -6.252196   -4.613515    2.645231
H     -4.132115   -5.503288   -0.238453
H     -5.335200   -6.155934    1.021121
H     -3.804296   -5.436142    1.560584
H      5.926088   -0.225476    4.887660
H      4.288915   -0.144715    4.088002
H      5.353790    1.347974    4.309765
H     -0.216386   -1.283722    2.918118
H      0.101095    0.458634    3.500152
H     -0.433033   -0.808411    4.597653
H     -1.586794    1.246725    5.048384
H     -3.178062    1.519647    4.320436
H     -1.708724    2.147557    3.497591
H     -3.685317   -0.626992    4.622757
H     -5.957788    2.083107   -3.335805
H     -4.760210   -3.547273   -1.079779
H     -4.512404    0.300797   -4.327733
H     -3.021037    1.369439   -4.111805
H     -6.099331   -1.483630    0.862728
H     -6.617651   -1.794393   -0.872448
H      7.880267   -0.561404    3.494996
H     -5.588733   -0.670708   -2.578529
H     -2.258902    1.777618   -1.800765
H      3.716968    0.625249   -3.240037
H      7.026480   -0.428874   -5.659192
H     -1.252324    2.872430    0.980530
H      3.122978    0.842364   -1.564869
H     -4.104777   -1.348770    2.109247
H      3.994140   -0.379769   -6.134539
H      9.814096   -1.222047    0.696132
H      9.373314   -1.118639   -3.222676
H      1.585498    4.572514    1.133559
H      1.632168   -2.148060    0.293598
