81

C     -5.793342    0.224902    2.475894
C      3.050317   -3.618985   -2.915639
C     -6.363596    2.583695    0.696787
C     -3.950471    2.874548    0.645109
C      1.387946    2.728086    4.358941
C      6.343669    2.413192    1.176827
C     -5.020733    1.247890    2.175019
C     -4.356075   -2.638867   -3.135388
C     -5.561549   -2.149138   -3.588272
C     -3.722582   -2.048052   -2.061407
C     -6.163485   -1.064512   -2.986169
C      5.185051   -2.583460   -2.189895
C      2.102756   -0.710810    3.779835
C     -2.800482   -0.201644    0.430268
C      2.755924   -1.374792    1.362100
C      2.028891    0.871120   -1.326763
C      3.809307   -2.562995   -2.203380
C      2.821328   -1.516599    2.805542
C     -4.324339   -0.960390   -1.457682
C     -3.977303   -0.167088   -0.392387
C      3.053914    0.512205   -0.222009
C     -5.541431   -0.462323   -1.910206
C     -1.581955   -0.227690   -0.070835
C      5.891668   -1.624820   -1.542903
C      1.771934    0.517305    3.336424
C      3.875071   -0.526598   -0.859321
C      5.212940   -0.575196   -0.863565
C      3.153885   -1.535284   -1.537998
C     -4.993323    0.787759   -0.227001
C      2.150467    0.908420    1.974601
C     -0.407975   -0.266139    0.813726
C      6.041339    0.390116   -0.190890
C     -0.143304   -0.210508   -1.969626
C     -5.035539    1.846114    0.801361
C      2.181042   -0.100360    0.874231
C      1.079238   -0.295023   -1.187121
N     -5.919956    0.577212   -1.162648
N     -1.294480   -0.190529   -1.447535
N      0.881741   -0.244585    0.255261
O      3.583652   -2.438052    3.267072
O      7.276588   -1.646397   -1.529426
O      2.439901    2.121897    1.803424
O     -0.597362   -0.317385    2.045681
O      7.311044    0.277877   -0.225423
O     -0.096964   -0.145772   -3.373418
O      1.089062    1.350203    4.191870
O      5.561711    1.447553    0.503332
O      1.790174   -1.497070   -1.534734
H     -6.443218   -0.178774    1.708551
H     -5.766515   -0.188157    3.467756
H      2.114287   -3.254653   -3.368832
H      3.709188   -4.013494   -3.732996
H      2.901901   -4.454994   -2.204176
H     -6.591782    3.144999    1.647932
H     -7.208971    1.852417    0.571967
H     -6.403656    3.244602   -0.184660
H     -3.678242    3.040985   -0.402542
H     -4.287316    3.866073    1.056542
H     -3.087921    2.581037    1.278064
H      1.295156    3.316813    3.443381
H      2.410308    2.859641    4.784387
H      0.662454    3.174328    5.089289
H      5.734020    3.055715    1.837997
H      7.029163    1.847285    1.858653
H      6.978338    2.989171    0.486586
H     -4.370463    1.657196    2.929252
H     -3.859144   -3.488307   -3.587151
H     -6.064995   -2.595752   -4.419274
H     -2.799515   -2.411143   -1.679182
H     -7.111792   -0.680231   -3.343169
H      5.734821   -3.386065   -2.709255
H      1.865699   -1.077870    4.761007
H     -2.875503   -0.207894    1.518420
H      2.257796   -2.272118    0.923834
H      3.833360   -1.402954    1.006103
H      1.550716    1.836108   -1.102156
H      2.581297    0.872889   -2.280608
H      3.545222    1.414419    0.114677
H     -6.802142    1.122887   -1.304665
H      7.833078   -2.341471   -1.976437
H     -0.869945    0.298286   -3.850956
