58

C     -2.121309   -2.989348   -2.671445
C      5.439148    0.981821   -2.291458
C      6.124875    1.100243    0.166810
C     -4.953235    3.305198   -1.187705
C     -1.748504   -3.664628    0.496867
C      0.067479   -3.636880   -1.135546
C     -1.930682   -2.326574   -1.532557
C      1.298984    1.932746    2.581340
C      2.504009    1.419474    2.156195
C      0.113430    1.312940    2.221436
C      4.029292    0.007160   -0.533489
C      3.750272   -0.299845    0.894006
C     -2.355449   -0.459152    1.111705
C      5.154438    0.671043   -0.866397
C     -4.359937    3.017293    0.195227
C      2.473415    0.286614    1.374487
C      0.053019    0.175511    1.437019
C     -0.932179   -0.636917    0.949720
C     -2.962323    0.680094    0.826419
C      1.287871   -0.329093    1.017013
C     -0.333281   -1.646962    0.230969
C     -2.894576    2.863555    0.016075
C     -4.422531    0.754417    1.033812
C     -0.996222   -2.783356   -0.481389
N     -5.000721    1.856376    0.723426
N     -2.250127    1.785483    0.307463
N      0.986411   -1.424740    0.296396
O     -2.200362    3.955684   -0.496349
O     -5.139081   -0.333082    1.548189
H     -1.572043   -3.916750   -2.858701
H     -2.804143   -2.646543   -3.432375
H      5.005277    0.242832   -2.991628
H      5.168386    2.024982   -2.522340
H      6.545779    0.918243   -2.411742
H      6.505230    0.255669    0.779597
H      5.646857    1.888018    0.795839
H      7.000052    1.567284   -0.315886
H     -4.806046    4.370264   -1.458875
H     -4.452783    2.609393   -1.887281
H     -6.029032    3.026841   -1.121730
H     -1.425166   -4.711863    0.353879
H     -1.528183   -3.396703    1.549155
H     -2.846285   -3.656311    0.290032
H      0.836200   -3.837513   -0.333790
H      0.577891   -3.161435   -1.972142
H     -0.366838   -4.645377   -1.396739
H     -2.492650   -1.419250   -1.386374
H      1.271925    2.823743    3.200075
H      3.457080    1.897146    2.432532
H     -0.830346    1.736025    2.590451
H      3.351754   -0.285636   -1.323578
H      4.615406    0.051909    1.519092
H      3.749240   -1.404563    1.005741
H     -2.994482   -1.285764    1.487110
H     -4.598820    3.941708    0.791038
H      1.723435   -2.028976   -0.159258
H     -1.275148    3.841044   -0.876052
H     -6.114673   -0.373496    1.265710
