51

C      6.031114    0.185832    0.882905
C      4.547465   -1.703599   -0.016632
C     -0.046428   -2.866090   -2.064270
C      4.399432    0.539400   -0.910863
C      3.343235    0.168291   -1.872895
C     -5.090756   -0.477977    1.156452
C     -3.580663    0.759206    2.463254
C     -0.212536    2.384557   -1.140527
C     -6.109608    0.295423    1.657944
C     -4.606613    1.533385    2.963543
C      0.863586    2.967054   -1.761464
C      0.998320    0.361772   -0.988916
C      4.975472   -0.281300   -0.047048
C     -3.766169   -0.258934    1.556950
C      2.102367    0.954657   -1.624827
C     -0.162274    1.033925   -0.732766
C     -5.908426    1.312166    2.563988
C      2.026165    2.273114   -2.012857
C     -2.718274   -1.133920    1.049786
C     -1.605575   -0.862197    0.336490
C     -1.311713    0.503341   -0.046774
C     -2.692907   -2.576095    1.289138
C     -0.888559   -2.074942   -0.014694
O     -6.968638    2.046772    3.023848
O      3.110886    2.841209   -2.633332
O     -2.208695    1.408176    0.263655
O     -3.596703   -3.213333    1.939756
O     -1.100911   -2.394798   -1.358750
O     -1.596394   -3.118579    0.732257
H      6.046426   -0.435575    1.813697
H      7.026235    0.186487    0.401484
H      5.855637    1.226099    1.226389
H      3.542390   -1.836230    0.444768
H      4.533878   -2.168061   -1.027173
H      5.244716   -2.319231    0.618172
H      0.392120   -3.794753   -1.616292
H      0.733076   -2.159146   -2.365898
H     -0.484276   -3.221228   -3.060260
H      4.723414    1.582255   -0.926593
H      3.081712   -0.914625   -1.710888
H      3.672475    0.239416   -2.925820
H     -5.249798   -1.279479    0.442352
H     -2.572704    0.957591    2.825876
H     -1.109660    2.976714   -0.967229
H     -7.143911    0.110856    1.333673
H     -4.448244    2.332051    3.676691
H      0.836305    4.019127   -2.082756
H      1.119341   -0.643792   -0.691683
H      0.142902   -2.170662    0.313891
H     -7.305375    2.905011    2.572527
H      3.137143    3.800660   -2.948279
