41

C     -4.468545    1.316558    0.526564
C     -2.985392   -0.479302    1.269878
C      0.920743   -2.935610   -0.801704
C     -1.110101    0.294079   -1.121333
C      2.999355    1.302738   -0.259897
C      3.304350   -0.475701    1.244606
C      2.016268    0.604816   -0.935872
C      2.332081   -1.176435    0.586309
C     -2.498321    0.749139   -0.871435
C     -0.781011   -1.115729   -0.753252
C      3.662556    0.790999    0.832661
C      1.661553   -0.660159   -0.518251
C      4.694784    1.548465    1.510173
C     -3.005573    0.808810    0.515402
C      0.640969   -1.485522   -1.172944
O      5.032054    2.816492    1.098689
O      5.281240    0.995148    2.502998
O     -2.266842    1.814735    1.180644
O      0.707191   -1.421650   -2.565712
H     -4.588530    2.190996    1.173180
H     -5.109991    0.514329    0.929469
H     -4.754558    1.580654   -0.530892
H     -3.917200   -0.563261    1.933245
H     -3.067392   -1.358665    0.615633
H     -2.145502   -0.551172    2.016575
H      0.524963   -3.207950    0.192370
H      2.021332   -3.052888   -0.840589
H      0.499036   -3.620674   -1.572946
H     -0.845662    0.463324   -2.166640
H     -0.374734    0.924799   -0.508989
H      3.289870    2.300075   -0.574150
H      3.842374   -0.867429    2.118768
H      1.535386    1.031309   -1.796832
H      2.081384   -2.174242    0.964617
H     -2.708259    1.756610   -1.354828
H     -3.188349    0.062689   -1.463637
H     -0.766306   -1.273215    0.367426
H     -1.498773   -1.847680   -1.158696
H      5.409307    3.446425    1.813974
H     -2.177080    2.552173    0.486051
H     -0.198674   -1.598075   -2.910637
