44

C      3.332127   -0.159256    1.962114
C     -4.266561   -0.174555    2.258373
C      4.151755    0.912657    1.691964
C     -3.803641   -1.319171    2.833919
C     -3.595914    0.364875    1.151180
C      2.422525   -0.517956    0.996269
C      4.059189    1.598530    0.493161
C     -2.682703   -1.901390    2.293506
C     -1.727547    1.212939   -1.318597
C     -1.136237    2.451434   -0.718478
C      1.861698    0.988449   -2.219471
C      0.860917   -2.417369   -1.757037
C     -2.473937   -0.225747    0.618341
C      2.308328    0.154958   -0.219521
C     -1.635021    0.055138   -0.429124
C      1.498305   -0.000160   -1.323589
C      0.478648   -1.029655   -1.484017
C      3.129000    1.227396   -0.488189
C     -2.007716   -1.364910    1.184999
C     -0.640163   -0.931746   -0.503317
N      2.843853    1.718118   -1.701896
N     -0.921357   -1.766751    0.505455
O     -1.781400    2.784052    0.458448
O      1.637233   -3.107426   -0.883284
H      3.384181   -0.707599    2.884412
H     -5.142208    0.323829    2.641690
H      4.884818    1.241763    2.408951
H     -4.293977   -1.765106    3.688960
H     -3.968578    1.266938    0.685296
H      1.764852   -1.334478    1.160870
H      4.685473    2.444985    0.245432
H     -2.330772   -2.807379    2.762567
H     -2.827644    1.467668   -1.449902
H     -1.409626    1.015053   -2.356637
H     -1.277908    3.284787   -1.440172
H     -0.057520    2.325228   -0.453051
H      1.393043    1.139421   -3.222013
H      1.176984   -2.547304   -2.839042
H     -0.118958   -3.001400   -1.763504
H     -0.066975   -0.724172   -2.447775
H      3.339885    2.547518   -2.138107
H     -0.426459   -2.638364    0.806879
H     -1.875972    3.765108    0.578020
H      1.255982   -3.848950   -0.398784
