89

C     -6.683455    4.262629    0.024500
C     11.783701    0.157835    0.230914
C     10.529163    2.382948   -0.230791
C     -2.020169   -2.467825   -3.051559
C     -7.941861    2.373231    2.280928
C     -5.573482    2.481296    1.758912
C     -7.184254    3.048918    0.038852
C     -7.032496   -3.612902   -0.744887
C     -8.035583   -3.690359    0.178046
C     -6.376905   -2.403693   -0.926851
C     -8.373893   -2.585058    0.900423
C      9.550492    0.630922    1.116289
C      0.058142   -1.200693   -2.967897
C      1.098894   -0.690399   -2.272741
C      2.281985   -0.391008   -0.175189
C      8.373454    1.494485    1.283166
C      3.541047   -0.920617   -0.829194
C      6.583157    1.252600   -0.442468
C     -5.198236    0.606428   -0.912829
C     -0.214014   -0.647684   -0.229213
C      4.679854   -1.805009    1.695045
C     10.579396    1.043065    0.400651
C     -0.887432   -2.013710   -2.157949
C      1.098115   -1.042544   -0.827543
C      7.129925    0.860702    0.748676
C     -6.710126   -1.261498   -0.194570
C      4.781261   -0.338506   -0.254803
C     -6.263136    0.025374   -0.164826
C      5.334098   -0.741719    0.958372
C     -7.724043   -1.385713    0.720438
C     -4.005059    0.067215   -0.975770
C      5.438393    0.668304   -0.931748
C      6.480425   -0.161039    1.455427
C     -7.009964    0.712569    0.779861
C     -2.954910    0.707820   -1.763254
C     -2.489531   -1.646793   -0.311035
C     -6.928266    2.117236    1.189948
C     -1.408013   -1.040628   -1.087416
N     -7.873615   -0.183150    1.282339
N     -3.653676   -1.110186   -0.288780
N     -1.811722    0.166494   -1.775484
O      5.046543   -2.273667    2.773326
O      4.887681    1.074619   -2.147762
O      7.083775   -0.503877    2.642443
O     -3.230492    1.870985   -2.464622
O     -2.266886   -2.802734    0.405408
H     -6.080319    4.611717    0.837859
H     -6.876106    4.916891   -0.806919
H     11.704139   -0.722049    0.877157
H     11.882482   -0.175789   -0.816272
H     12.698745    0.758712    0.489701
H     10.384724    3.158935    0.524683
H      9.695925    2.379945   -0.965699
H     11.464439    2.598380   -0.797746
H     -2.980949   -2.530718   -2.522157
H     -2.038889   -1.895395   -3.987964
H     -1.768069   -3.528172   -3.339484
H     -7.663878    1.697107    3.136529
H     -7.850741    3.407854    2.620403
H     -8.962129    2.116913    1.934353
H     -5.183356    1.689473    2.446428
H     -4.847730    2.789719    0.997282
H     -5.741287    3.368854    2.422209
H     -7.790048    2.717622   -0.792756
H     -6.775622   -4.494614   -1.308832
H     -8.585420   -4.605077    0.366904
H     -5.597727   -2.355513   -1.671498
H     -9.179306   -2.651495    1.639675
H      9.595405   -0.354755    1.574708
H     -0.027559   -1.002290   -4.016810
H      1.845180   -0.076380   -2.762158
H      2.255548    0.715564   -0.397677
H      2.289894   -0.450800    0.918582
H      8.207082    1.637128    2.379081
H      8.471438    2.477607    0.814238
H      3.593608   -2.045938   -0.735121
H      3.513664   -0.754248   -1.929253
H      7.086258    2.046471   -0.994042
H     -5.369150    1.528606   -1.453683
H     -0.353856   -1.085764    0.801995
H     -0.187659    0.452775   -0.048134
H      3.775205   -2.240350    1.262490
H     -0.438955   -2.859898   -1.637214
H      1.219003   -2.164813   -0.708832
H     -8.605149   -0.006926    2.034577
H      5.341067    1.798002   -2.655973
H      6.871929   -1.154942    3.327785
H     -2.477791    2.494298   -2.751804
H     -3.002325   -3.291313    0.922897
