64

C     -0.649706   -0.184711   -0.100007
C      1.401383   -0.667678   -1.358726
C     -2.024455   -0.162947    0.082900
C      2.057479   -1.120403   -2.400844
C     -0.894451   -1.168796   -2.216641
C      7.250985    1.339149   -0.569680
C      7.431202   -0.903529    0.358105
C     -8.086552   -1.516125    1.226439
C     -0.051982   -0.684542   -1.246454
C     -2.271155   -1.150636   -2.041403
C      5.930840    1.020211   -1.176717
C      6.053998   -1.266747   -0.139181
C     -2.871989   -0.647257   -0.887213
C     -6.720933   -0.982203    1.683926
C      3.509046   -1.061506   -2.423123
C     -6.821988    0.415680    2.159179
C     -6.490517    1.484080    1.169182
C     -6.007661    0.873511   -0.145832
C      5.595563   -0.429101   -1.282740
C     -5.034981   -0.215363    0.265789
C      6.689418    0.954002    1.824832
C      7.538239    0.567177    0.699063
O     -9.017732   -1.207711    2.227662
O     -3.122442   -1.639855   -3.021266
O      4.876803    1.704752   -0.573944
O      6.122729   -2.591802   -0.581593
O      4.178891   -1.485837   -3.404160
O     -6.101960    0.549945    3.349232
O     -7.456914    2.439968    0.990847
O     -5.396990    1.832484   -0.944329
O      5.439477    0.849748    1.847643
O      7.278042    1.478146    2.966401
O      8.879635    0.802319    1.010136
O     -4.231083   -0.653193   -0.767147
O     -5.802932   -1.270965    0.726060
O      4.179760   -0.532785   -1.355974
H      0.007519    0.202185    0.675998
H      2.000247   -0.258038   -0.537737
H     -2.442054    0.238296    0.997642
H      1.545427   -1.535953   -3.242747
H     -0.456522   -1.570641   -3.134185
H      8.089495    1.255614   -1.271543
H      7.221288    2.425174   -0.268012
H      7.596933   -1.460941    1.303221
H      8.190058   -1.138479   -0.393010
H     -8.368591   -1.149121    0.239804
H     -8.065599   -2.632869    1.174197
H      5.961464    1.413249   -2.237526
H      5.319820   -1.265993    0.702641
H     -6.476613   -1.633587    2.576810
H     -7.900397    0.586283    2.456946
H     -5.579348    2.018114    1.573030
H     -6.880493    0.483189   -0.696596
H      5.980544   -0.857412   -2.243533
H     -4.446491    0.173352    1.119270
H     -9.935651   -1.080929    1.836838
H     -2.713608   -2.008070   -3.863792
H      4.007761    1.273010   -0.691007
H      5.513399   -3.190063   -0.104578
H     -6.293185   -0.163691    3.977435
H     -6.996057    3.274599    0.658965
H     -6.061383    2.552408   -1.093502
H      6.756514    1.795769    3.772910
H      9.068457    1.753680    0.761638
