43

C     -2.873528    2.905179   -0.511970
C      0.912097   -2.557384   -2.268433
C      4.813449   -0.733771   -0.494096
C      5.434639    0.394624   -0.007687
C      3.485480   -0.980826   -0.162214
C      4.740136    1.277436    0.807132
C      0.383782   -1.062228    0.866978
C      1.371796    1.053132    1.931424
C     -4.359683    0.178322    1.017298
C      1.493353   -0.102782    1.140313
C      2.768786   -0.104656    0.656181
C      3.419475    1.010487    1.124324
C     -2.889880   -0.162042    0.873724
C     -2.665771   -1.297425   -0.042427
C     -0.876880    0.726554   -0.220547
C     -0.332218   -0.669819   -0.372131
N      2.537041    1.695517    1.900685
N     -1.542894   -1.501117   -0.575046
N     -2.116091    0.956548    0.427238
O     -4.959660    0.594132   -0.142043
O     -3.783123   -2.131931   -0.282439
O     -0.187408    1.653509   -0.690293
O     -2.595583    2.207954    0.637075
S      0.614095   -0.827196   -1.880786
H     -3.769709    3.542243   -0.284817
H     -3.165836    2.288707   -1.371894
H     -2.004913    3.519781   -0.840939
H      1.994367   -2.658869   -2.565473
H      0.777213   -3.223400   -1.390229
H      0.291642   -2.939864   -3.107866
H      5.344374   -1.409613   -1.112959
H      6.480848    0.571424   -0.281798
H      3.009288   -1.872378   -0.526126
H      5.214904    2.166906    1.192158
H      0.842042   -2.081273    0.809974
H     -0.266645   -1.027636    1.760049
H      0.433514    1.301032    2.451311
H     -4.905200   -0.706148    1.401638
H     -4.460913    0.978277    1.798846
H     -2.552485   -0.473951    1.895763
H      2.736695    2.605656    2.404628
H     -5.114831   -0.213154   -0.700494
H     -3.675766   -2.889957   -0.952652
