42

C     -2.916356    2.379302    0.502679
C     -0.396728    0.143900    2.530217
C     -4.997575   -1.172506   -0.135040
C      4.867935   -2.211023   -0.529111
C      5.709170   -1.131962   -0.746248
C      3.507341   -2.039521   -0.304287
C      5.205202    0.153647   -0.743166
C      0.495357   -1.055050    0.154461
C      1.858758    1.107019   -0.221855
C     -3.083389    1.173025   -0.425863
C      1.729541   -0.271610   -0.109440
C      3.010543   -0.767483   -0.300823
C      3.840314    0.299574   -0.515255
C     -1.928315    1.147014   -1.351054
C     -1.937254   -0.826563    0.569291
C     -0.654676   -0.103937    0.296149
N      3.135671    1.445505   -0.466915
N     -0.851258    0.555606   -0.977126
N     -3.113092   -0.057179    0.331130
O     -1.972941    1.742083   -2.612068
O     -2.005735   -1.994356    0.969564
O     -0.507742    0.809148    1.326475
O     -4.316865   -0.494356    0.846820
H     -2.934484    2.079292    1.565742
H     -1.995945    2.949282    0.271670
H     -3.770492    3.092604    0.371424
H     -1.314152   -0.487596    2.745912
H      0.457816   -0.535860    2.605591
H     -0.348747    0.850239    3.396412
H     -5.195911   -2.215425    0.239764
H     -4.426347   -1.234374   -1.089713
H     -5.972205   -0.636617   -0.322426
H      5.274032   -3.209261   -0.535090
H      6.778411   -1.243363   -0.925040
H      2.842362   -2.865927   -0.138730
H      5.840465    1.008103   -0.913235
H      0.273700   -1.664852   -0.768076
H      0.601281   -1.760996    0.988766
H      1.068127    1.852915   -0.131005
H     -4.048033    1.303246   -0.998426
H      3.507719    2.406533   -0.595012
H     -1.315500    1.481782   -3.348852
