44

C      4.609432    2.684043    0.365954
C     -1.146154   -4.905455    0.283333
C     -5.089555    2.624529   -0.199299
C     -3.882385    3.349990   -0.134303
C     -5.103524    1.243633   -0.187342
C      4.997534    0.254258    0.506552
C      2.772400    0.980630    0.307458
C     -0.088651   -2.635950    0.260151
C     -2.432699   -2.761019    0.094133
C      3.183244   -1.338760    0.444669
C     -1.222387    2.976450    0.093151
C      4.091244    1.283239    0.391760
C     -1.226888   -3.412368    0.211190
C     -2.669991    2.665687   -0.058456
C      4.546198   -1.033616    0.532141
C      2.263352   -0.338027    0.330166
C     -3.898585    0.535578   -0.110504
C     -0.104927   -1.246765    0.195457
C     -2.503869   -1.387072    0.028061
C     -2.794394    1.309357   -0.058342
C     -1.363974   -0.605095    0.072580
C     -1.374527    0.823794   -0.117888
O      5.465479   -2.086334    0.648984
O     -0.774469    1.722013    0.705730
O      0.971961   -0.477613    0.240418
O     -3.814634   -0.859540   -0.071550
H      3.797932    3.402780    0.609945
H      5.475691    2.801339    1.041976
H      4.968348    2.946870   -0.659860
H     -1.840615   -5.380677   -0.437991
H     -0.094424   -5.185790    0.111568
H     -1.455482   -5.182104    1.312596
H     -5.991134    3.221081   -0.258355
H     -3.847721    4.423556   -0.140143
H     -6.034989    0.721958   -0.236728
H      6.064408    0.454912    0.576786
H      2.080352    1.825373    0.217093
H      0.850905   -3.182730    0.354824
H     -3.312987   -3.392236    0.057701
H      2.944496   -2.386096    0.475048
H     -0.679423    3.023441   -0.849367
H     -1.036902    3.795208    0.797178
H     -0.978436    1.096871   -1.165786
H      5.680750   -2.369344    1.613561
