52

C      5.448445   -0.480892    1.730371
C      5.745710    1.090142   -0.230677
C      0.427900   -3.095448    0.592269
C      3.499888    0.417123    0.624067
C      0.182605   -1.312388   -2.581795
C      2.753970    1.208860   -0.366627
C     -5.160956    0.836832    0.820290
C     -3.131275    1.937897    0.336096
C     -5.845032    2.018348    0.716655
C     -3.825669    3.146091    0.229242
C      1.533361   -1.285853   -2.842406
C      0.452802    0.304768   -0.893382
C     -1.856026   -0.596143   -1.348130
C      4.807076    0.370601    0.667133
C     -0.400815   -0.511935   -1.593671
C     -3.778475    0.763608    0.631471
C      1.820888    0.327220   -1.160817
C     -5.191641    3.193888    0.419538
C     -2.254430   -1.153236   -0.052493
C      2.385390   -0.458767   -2.131240
C     -3.096615   -0.528820    0.776624
C     -3.321712   -1.381137    1.933113
C     -1.799199   -2.407762    0.610699
O     -5.899816    4.398833    0.314119
O      3.747380   -0.402105   -2.364286
O     -4.066555   -1.090841    2.912875
O     -0.483063   -2.178170    1.026098
O     -2.595297   -2.543239    1.780436
H      6.409627   -0.097556    2.069142
H      5.618439   -1.475936    1.219729
H      4.715713   -0.699912    2.523605
H      6.026520    0.458924   -1.117862
H      5.332728    2.049514   -0.590588
H      6.726536    1.266622    0.298282
H      0.552409   -3.223370   -0.479160
H      1.423141   -2.790247    1.032701
H      0.203562   -4.065095    1.119771
H      2.914683   -0.145974    1.339389
H     -0.471788   -1.972888   -3.153452
H      2.115329    1.993646    0.136587
H      3.403579    1.791442   -1.045145
H     -5.686788   -0.076209    1.053776
H     -2.047232    1.942443    0.199977
H     -6.938084    2.063595    0.866103
H     -3.260574    4.036540   -0.006121
H      1.991515   -1.909000   -3.613528
H      0.071391    0.950713   -0.111349
H     -2.295586    0.401036   -1.493674
H     -2.327042   -1.256984   -2.136249
H     -1.926752   -3.272696   -0.038799
H     -6.885784    4.378157    0.456565
H      4.235620   -0.934241   -3.045311
