52

C      6.428263    1.640258    0.916343
C      6.305254   -0.890498    0.645694
C     -0.243977   -3.069560    1.617869
C      4.324764    0.456043    1.052392
C      0.039231   -0.066851   -1.513415
C      3.350519   -0.648509    1.045049
C     -3.788531    1.459684   -1.562910
C     -5.526697    1.025807   -0.023563
C     -4.521959    2.537091   -2.063079
C     -6.225627    2.084152   -0.529165
C      1.236624   -0.447332   -2.059438
C      0.992412   -0.078171    0.631729
C     -1.366252    0.561896    0.504708
C      5.619272    0.394545    0.872046
C     -0.125196    0.128354   -0.173345
C     -4.278181    0.699138   -0.545917
C      2.212038   -0.458711    0.137033
C     -5.754721    2.872275   -1.557532
C     -2.356665   -0.576402    0.540315
C      2.324662   -0.641383   -1.211299
C     -3.571874   -0.439843    0.075272
C     -4.218365   -1.756804    0.271675
C     -2.127619   -1.918863    1.081353
O     -6.468678    3.944782   -2.065909
O      3.496151   -1.026126   -1.839541
O     -5.425139   -2.013904   -0.064084
O     -1.032023   -2.592194    0.558188
O     -3.327577   -2.612926    0.853163
H      7.214549    1.510715    1.711424
H      6.991753    1.810813   -0.018708
H      5.843651    2.521821    1.221658
H      6.523260   -1.090289   -0.433910
H      7.332369   -0.779058    1.109276
H      5.833858   -1.737659    1.165687
H     -0.858301   -3.789010    2.241503
H      0.632177   -3.619729    1.271716
H      0.061304   -2.221718    2.259143
H      3.899161    1.468004    1.235417
H     -0.823818    0.083401   -2.181395
H      3.864206   -1.626343    0.847220
H      3.000179   -0.761928    2.114634
H     -2.830047    1.228428   -2.010742
H     -5.912518    0.421675    0.779876
H     -4.115623    3.122218   -2.864958
H     -7.217574    2.357512   -0.126077
H      1.348517   -0.599748   -3.147912
H      0.919087    0.064207    1.722201
H     -1.760907    1.436233    0.006546
H     -1.121113    0.852197    1.561621
H     -2.039433   -1.882906    2.214553
H     -7.127387    3.884159   -2.829740
H      4.372541   -1.218945   -1.434637
