44

C      4.819742    2.054098   -1.782663
C     -1.067553   -5.201588   -0.605811
C     -4.512451    2.415949    1.285010
C     -3.374605    3.078559    0.838736
C     -4.548353    1.029642    1.253656
C      4.033042    1.406029    0.503548
C      2.886905    0.529648   -1.410312
C     -0.025240   -2.942883   -0.875661
C     -2.170633   -3.039619    0.037692
C      2.191437   -0.045390    0.768700
C     -0.956054    2.681204   -0.241688
C      3.883200    1.305997   -0.872327
C     -1.088612   -3.712838   -0.479616
C     -2.285757    2.385012    0.370337
C      3.192403    0.734340    1.333087
C      2.003480   -0.175649   -0.579016
C     -3.467387    0.274564    0.784984
C     -0.051100   -1.568263   -0.753304
C     -2.239522   -1.672504    0.174479
C     -2.410045    1.027899    0.381967
C     -1.139781   -0.902488   -0.230481
C     -1.076599    0.516940   -0.014606
O      3.360439    0.848767    2.701533
O     -0.570904    1.432149   -0.864649
O      1.059705   -0.914646   -1.185988
O     -3.430072   -1.107109    0.700965
H      4.408190    3.059666   -1.969367
H      4.950041    1.506450   -2.730285
H      5.798493    2.084772   -1.262528
H     -0.258304   -5.451827   -1.334547
H     -0.935585   -5.682065    0.362636
H     -2.025326   -5.548602   -1.091022
H     -5.374703    2.963863    1.658131
H     -3.355427    4.141244    0.863749
H     -5.419657    0.478053    1.592824
H      4.846859    2.041344    0.855838
H      2.797370    0.473029   -2.475932
H      0.841531   -3.466198   -1.291599
H     -3.023072   -3.661228    0.354892
H      1.532767   -0.574468    1.445115
H     -0.204539    3.043735    0.438485
H     -1.098585    3.371734   -1.086857
H     -0.484132    0.625984    0.992506
H      3.988393    0.156696    3.136577
