47

C     -5.903265   -0.995218    0.923548
C      3.047806    1.321546    1.827689
C      4.976826   -1.643077   -1.542675
C      3.751063   -1.315517   -2.047294
C      5.130511   -1.762630   -0.183276
C     -5.027685   -0.314849   -1.304005
C     -3.459261   -0.699804    0.401798
C      0.971944    2.686421    1.585461
C     -2.670767   -0.055905   -1.719489
C     -0.995412    1.786965    0.687732
C      1.252351   -0.797592   -1.418221
C     -4.759405   -0.666845    0.005481
C      1.639628    1.457800    1.427492
C      2.711289   -1.114757   -1.190055
C     -3.987231   -0.012707   -2.155544
C     -0.342159    2.870785    1.222382
C     -2.379975   -0.407826   -0.405231
C      4.049068   -1.552438    0.686841
C     -0.355267    0.579770    0.528077
C      0.987858    0.379248    0.894610
C      2.822377   -1.221947    0.179854
C      1.532651   -0.940830    0.748975
O     -4.217618    0.348338   -3.489201
O     -0.975744    4.092784    1.388747
O      4.319036   -1.707477    2.045586
O      0.699016   -1.523705   -0.330098
O     -1.078221   -0.441883   -0.005152
H     -5.467550   -1.664677    1.703157
H     -6.739814   -1.448901    0.378883
H     -6.179064   -0.047124    1.422542
H      3.352995    2.346329    2.241276
H      3.217589    0.673180    2.680609
H      3.739075    1.227228    0.971405
H      5.822562   -1.806064   -2.235596
H      3.599143   -1.214422   -3.119008
H      6.091121   -2.020775    0.224059
H     -6.051308   -0.270714   -1.680515
H     -3.229247   -0.974556    1.429151
H      1.545713    3.507872    2.016059
H     -1.854923    0.175946   -2.368699
H     -2.045057    1.911197    0.390667
H      0.917588   -1.203014   -2.373664
H      1.073982    0.266836   -1.395319
H      1.224915   -1.571282    1.610903
H     -3.462084    0.568458   -4.110528
H     -0.971739    4.814770    0.657327
H      3.676691   -1.618938    2.793255
