48

C      1.914400    1.889251    2.209426
C      2.068734    3.579558    0.508056
C     -5.189714   -0.449377   -0.656686
C     -1.407748    0.943718    3.218241
C      1.837364    1.199545   -1.195686
C      2.893953   -2.386919   -2.007627
C      0.522993   -2.948130    0.819138
C      1.632866    2.206116    0.991947
C     -3.747885   -0.332566   -0.410690
C      0.926791    1.393568   -0.004110
C      2.042987   -0.254545   -1.295984
C      1.317636   -2.306822   -0.206581
C      2.855545   -1.029721   -2.132503
C      2.123367   -3.062467   -1.037758
C      1.290583   -0.906672   -0.352675
C      0.466660    0.054960    0.419945
C     -1.011611   -0.115990    0.152625
C     -2.817248   -0.196807   -1.418031
C     -3.290067   -0.358929    0.893113
C     -1.446015   -0.087764   -1.149742
C     -1.940720   -0.251207    1.157947
Cl    -3.340300   -0.157179   -3.083998
Cl    -4.448476   -0.530239    2.184770
O      0.468360   -4.168289    1.054681
O      3.628823   -0.403370   -3.098390
O      2.226110   -4.433962   -0.984461
O     -0.575022    0.043963   -2.216192
O     -1.511693   -0.279309    2.486002
H      2.445182    2.587661    2.859139
H      1.660944    0.954366    2.653785
H      2.937114    3.519248   -0.149260
H      2.236003    4.253916    1.384577
H      1.218787    4.017025   -0.045542
H     -5.625170   -1.416045   -0.366483
H     -5.432112   -0.191002   -1.703314
H     -5.698327    0.334053   -0.021824
H     -0.458732    0.942574    3.791734
H     -2.246463    1.001629    3.970207
H     -1.401415    1.824005    2.552042
H      2.857054    1.649842   -0.958762
H      1.529458    1.709178   -2.105466
H      3.521059   -3.004690   -2.651452
H     -0.087193   -2.329459    1.453069
H      0.030211    2.037892   -0.316115
H      0.580153   -0.131090    1.526703
H      3.575838    0.601763   -3.162646
H      1.789477   -5.072333   -0.404401
H     -0.922540    0.061052   -3.150770
