47

C     -4.160176    3.493893    0.040617
C      2.755261   -2.300871    1.156292
C      4.908775    1.364540   -1.448424
C      4.705799    0.241592   -2.226222
C      4.019759    1.796149   -0.489704
C     -4.997354    1.284790   -0.747322
C     -2.640338    1.558083   -0.482097
C      0.587757   -1.956685    2.363554
C     -3.501610   -0.512429   -1.226821
C     -1.272633   -0.919390    1.306192
C      2.960590   -1.679206   -2.604205
C     -3.932751    2.088498   -0.403942
C      1.365545   -1.827945    1.218358
C      3.533764   -0.451290   -1.992062
C     -4.803782   -0.003950   -1.156549
C     -0.711931   -1.514099    2.421157
C     -2.412916    0.266228   -0.889832
C      2.870016    1.069018   -0.298569
C     -0.525154   -0.781507    0.165558
C      0.797590   -1.240436    0.131080
C      2.614747   -0.057000   -1.043179
C      1.528169   -1.057141   -1.117715
O     -5.838605   -0.854232   -1.513029
O     -1.511565   -1.630669    3.554159
O      1.964312    1.487565    0.660949
O      2.214072   -2.200357   -1.548840
O     -1.104837   -0.183100   -0.940257
H     -4.419923    4.167057   -0.786041
H     -4.946248    3.486791    0.842143
H     -3.224996    3.865632    0.494764
H      3.014667   -2.698918    2.178243
H      2.915516   -3.149873    0.466570
H      3.491103   -1.473501    0.986967
H      5.828458    1.926095   -1.617695
H      5.403268   -0.097622   -2.978885
H      4.238457    2.700639    0.099086
H     -5.993552    1.696932   -0.685931
H     -1.812743    2.199223   -0.209641
H      1.032046   -2.422688    3.231967
H     -3.320707   -1.528090   -1.547233
H     -2.300159   -0.567391    1.345703
H      3.745265   -2.379356   -2.947551
H      2.275763   -1.366969   -3.406092
H      0.872625   -0.763106   -1.964907
H     -6.805904   -0.505487   -1.470636
H     -1.498015   -0.862553    4.228898
H      2.092575    2.293137    1.231176
