49

C      5.376010    0.950425    1.677373
C      6.029023    2.665721   -0.052782
C     -1.127077   -5.412321    0.291713
C      0.500981    0.161985   -2.056423
C     -4.891445    3.783157   -0.523405
C      2.547860    1.282645   -0.533512
C      3.838518    1.532617   -0.023077
C      0.543018   -3.617400    0.013155
C      0.931642   -2.291996   -0.156857
C      1.717733    0.370008    0.070838
C     -1.722521   -2.972824    0.064616
C     -3.678350   -0.865091   -0.098832
C     -2.852027    1.782994   -0.302884
C      4.974443    1.752626    0.426158
C     -0.777680   -3.966868    0.122914
C     -1.342492   -1.627225   -0.104718
C     -2.339536   -0.574721   -0.103915
C     -0.032586   -1.276860   -0.218078
C     -4.616409    0.141218   -0.192715
C     -1.935406    0.737910   -0.201445
C     -4.180169    1.461099   -0.296424
C      0.401546    0.135397   -0.496689
O     -5.986647   -0.153806   -0.185585
O     -5.137356    2.418698   -0.393701
O     -0.599047    1.043811   -0.196993
H      4.893337    1.420219    2.562296
H      5.034974   -0.089707    1.522275
H      6.454258    0.926201    1.798839
H      6.273747    3.356493    0.809931
H      5.770826    3.261389   -0.943593
H      6.919598    2.009245   -0.286449
H     -0.681556   -6.031940   -0.546449
H     -0.804780   -5.820092    1.249062
H     -2.241339   -5.532382    0.133039
H      0.438345    1.224170   -2.352581
H     -0.323761   -0.441547   -2.453198
H      1.476206   -0.251454   -2.341996
H     -4.511361    4.049538   -1.536484
H     -4.144401    4.169195    0.204223
H     -5.895758    4.291898   -0.404287
H      2.113675    1.758357   -1.394034
H      4.082040    2.446715   -1.055782
H      1.287705   -4.403203    0.062265
H      1.963557   -1.994918   -0.237665
H      2.157916   -0.089743    0.941583
H     -2.743299   -3.265834    0.154879
H     -3.997367   -1.889384   -0.017135
H     -2.544570    2.812389   -0.387593
H     -6.620015    0.623192   -0.265127
