45

C     -5.146194   -0.505859    0.745737
C      4.226447   -1.214155    0.589504
C     -3.629088   -0.654391    0.884058
C      3.742701   -0.070136   -0.263993
C     -2.997665    0.237160   -0.122319
C      1.899510    0.963569   -1.596157
C     -1.066712    1.228436   -1.213789
C      2.323465   -0.179625   -0.728713
C     -1.493866    0.217205   -0.159526
C      1.257473    2.055499   -0.843460
C     -0.050157    2.164628   -0.680051
C     -0.935376   -1.126056   -0.496697
C      0.317928   -1.442994   -0.270848
C      1.318292   -0.511752    0.339095
C      1.926730    3.189942   -0.168933
C     -0.271424    3.371629    0.106858
C     -1.566821   -2.275947   -1.110342
C      0.538172   -2.805290   -0.726573
O      1.991397   -1.101126    1.395849
O      3.183226    3.401440   -0.127511
O     -1.385341    3.860352    0.500018
O     -2.768637   -2.451954   -1.514845
O      1.599146   -3.499025   -0.694991
O      0.938208    3.968822    0.400218
O     -0.634647   -3.330657   -1.251813
H     -5.372637   -0.607592   -0.342209
H     -5.662332   -1.365443    1.244410
H     -5.493529    0.469660    1.080982
H      3.738462   -2.174888    0.397392
H      5.319051   -1.394512    0.345969
H      4.242302   -0.885787    1.646611
H     -3.292743   -1.675020    0.959465
H     -3.426264   -0.202761    1.910476
H      3.960636    0.874665    0.294547
H      4.370202   -0.096578   -1.206426
H     -3.321316   -0.063251   -1.165249
H     -3.399542    1.258507    0.039873
H      2.844483    1.333342   -2.093599
H      1.278734    0.611436   -2.448760
H     -1.929149    1.839221   -1.534299
H     -0.728771    0.662597   -2.093293
H      2.327372   -1.080213   -1.430270
H     -1.145876    0.507725    0.849986
H      0.842229    0.391160    0.771843
H      1.531921   -1.891986    1.744130
