27

C     -4.006882    0.259328    0.846981
C      1.848933   -1.581288   -1.152147
C      2.475834   -0.088471    1.363413
C     -2.227683    0.735684   -0.828620
C     -0.912955    0.610744   -1.204882
C     -2.604946    0.172133    0.362579
C      1.427069   -0.142863   -0.914541
C      2.389228    0.561565    0.024520
C      0.034816   -0.047859   -0.448674
C     -1.621189   -0.478048    1.087084
O      1.921419    1.866896    0.169149
O     -1.951626   -0.995197    2.172963
O     -0.385988   -0.567357    0.682855
H     -4.404759   -0.773095    0.886078
H     -4.575766    0.903613    0.159000
H     -4.008481    0.673382    1.894007
H      2.927347   -1.689010   -0.931919
H      1.692382   -1.888104   -2.211422
H      1.291179   -2.293015   -0.510865
H      3.532423   -0.060360    1.729512
H      1.893184    0.465686    2.155862
H      2.145620   -1.141652    1.378546
H     -2.960165    1.263000   -1.446136
H     -0.616856    1.053230   -2.140148
H      1.520472    0.373563   -1.891102
H      3.383391    0.579027   -0.483810
H      1.794000    2.228467   -0.748284
