42

C     -4.249759   -1.337886   -0.739033
C     -0.974684   -1.279470    1.766876
C      6.134590    0.254319    1.081283
C      6.249173   -0.475932   -1.280730
C     -4.558273    1.077936    0.037728
C      2.035889   -0.743307   -1.397703
C      1.841564   -0.004980    0.835046
C      3.406763   -0.677191   -1.350281
C      3.218699    0.061652    0.880881
C     -5.812064    1.157570   -0.344314
C     -2.477672   -0.119144    0.279377
C     -3.701302   -0.068960   -0.101875
C     -1.137858   -0.174005    0.696860
C      1.209948   -0.411917   -0.319830
C      4.035587   -0.262272   -0.180624
C     -6.601613    2.375654   -0.159107
C     -0.228125   -0.461303   -0.463569
N      5.452723   -0.162250   -0.117442
O     -6.040501    3.354733    0.382172
O     -7.912262    2.496261   -0.548871
O     -0.727041   -0.753226   -1.577632
H     -4.752071   -1.129475   -1.688688
H     -4.951502   -1.798466   -0.009301
H     -3.461146   -2.085527   -0.915119
H     -0.720540   -0.850872    2.743329
H     -1.962268   -1.806250    1.919638
H     -0.231045   -1.989215    1.370181
H      7.211157   -0.034184    1.022435
H      6.068524    1.361113    1.238303
H      5.705870   -0.199115    1.994219
H      5.799208    0.010395   -2.197939
H      7.277575   -0.080590   -1.165415
H      6.314129   -1.568136   -1.376491
H     -4.119558    1.964934    0.510961
H      1.541437   -1.059642   -2.294623
H      1.286200    0.270494    1.718017
H      4.026891   -0.949338   -2.209674
H      3.736625    0.384644    1.793257
H     -6.326580    0.327293   -0.811345
H     -2.594012    1.222905    0.714656
H     -0.702865    0.772947    1.146546
H     -8.309810    3.389801   -0.882161
