27

C      3.938602    0.500476   -0.205020
C     -1.809822   -1.519813    1.452643
C     -2.248337    1.216155   -1.162326
C      1.990981   -0.731745   -1.111620
C      0.646440   -1.045004   -1.017102
C      2.510056    0.119926   -0.168570
C     -1.567941   -0.824428    0.125820
C     -2.407877    0.433825    0.119396
C     -0.126341   -0.514450   -0.010228
C      1.686262    0.623023    0.821016
O     -2.046181    1.211593    1.219730
O      2.190504    1.399066    1.668363
O      0.425691    0.295843    0.864744
H      4.358342    0.459796    0.833593
H      4.079982    1.552940   -0.561868
H      4.496613   -0.155660   -0.873284
H     -1.554288   -2.585608    1.351909
H     -2.889490   -1.383057    1.702644
H     -1.141853   -1.054707    2.190187
H     -3.217252    1.628091   -1.516892
H     -1.834409    0.605609   -1.986515
H     -1.592204    2.109679   -0.995741
H      2.604722   -1.137259   -1.890045
H      0.219686   -1.718161   -1.756173
H     -1.876686   -1.515951   -0.683015
H     -3.471281    0.129095    0.206158
H     -1.363920    1.900725    0.980219
