65

C      4.686822    2.102784    0.077518
C      2.385508    2.722922   -0.271648
C     -2.908256    3.210240    1.353266
C     -1.659060   -3.407940   -1.494095
C      2.023385   -1.665727    2.140523
C     -3.175750   -0.875931   -1.831060
C     -1.862623    2.394151   -0.735479
C      4.031087   -0.713441    0.324562
C     -3.816029   -0.057399    1.154341
C      3.339012   -2.065463    0.077462
C     -3.492873   -1.411280    0.558770
C     -1.332886    1.018679   -1.112370
C      0.668478    0.302301    0.770242
C      0.900251   -2.653361    0.172628
C      3.232055    1.650895    0.374793
C     -2.948835    2.142751    0.287171
C     -1.456909   -2.178953   -0.669747
C      3.008595    0.295943   -0.241374
C     -0.375139   -1.856431    0.036804
C     -2.623171    0.814237    0.927724
C      1.727362   -0.369683   -0.013424
C     -0.576534   -0.556787    0.714261
C      1.985029   -1.735318    0.644064
C     -2.484545   -1.122219   -0.532026
C     -1.704613    0.088408   -0.028979
H      4.855445    2.089965   -1.000334
H      5.401371    1.509224    0.657883
H      4.750755    3.148460    0.444137
H      1.791551    3.254566    0.513990
H      1.757552    2.353180   -1.107289
H      3.075010    3.538945   -0.649228
H     -1.881138    3.628687    1.473251
H     -3.228315    2.827024    2.341741
H     -3.543367    4.074637    1.021999
H     -0.691836   -3.906036   -1.628174
H     -2.081075   -3.129712   -2.480681
H     -2.329260   -4.135680   -0.962946
H      1.025992   -1.810206    2.576382
H      2.537411   -0.811531    2.572217
H      2.616032   -2.568854    2.479068
H     -3.729839    0.078329   -1.864462
H     -3.969974   -1.674018   -1.927835
H     -2.520178   -1.035802   -2.718728
H     -2.250865    2.949632   -1.611908
H     -1.066042    3.033462   -0.287730
H      4.174521   -0.607479    1.398961
H      4.989043   -0.649462   -0.224795
H     -4.708970    0.352614    0.654820
H     -3.998971   -0.229700    2.247830
H      3.283319   -2.268494   -1.002141
H      3.785644   -2.857564    0.675832
H     -4.405317   -1.831217    0.089289
H     -3.096785   -2.117762    1.302471
H     -0.275718    1.119079   -1.329391
H     -1.830535    0.779700   -2.098076
H      0.460782    1.348562    0.563033
H      0.994965    0.282374    1.854180
H      1.130892   -3.164175   -0.775638
H      0.704434   -3.396315    0.973203
H      3.107327    1.708348    1.451711
H     -3.961196    2.144959   -0.159472
H      3.278438    0.385826   -1.313763
H     -2.064911    0.959494    1.873249
H      1.313199   -0.657842   -1.038928
H     -0.969749   -0.788598    1.746167
