65

C      4.526637    1.762700    1.565619
C      3.216954    2.314812   -0.396241
C     -3.271890    3.400609    0.135292
C     -1.894136   -3.616037    0.092011
C      2.190893   -0.985847   -2.212013
C     -3.364230   -1.418860    1.227792
C     -2.238223    1.788618    1.742802
C      4.031622   -0.675247    0.024735
C     -3.381572    0.586722   -1.518688
C      3.328276   -1.998988   -0.324877
C     -3.433911   -0.864743   -1.166612
C     -1.444854    0.514896    1.559068
C      0.736969    0.555286   -0.366311
C      0.881464   -2.455567   -0.811512
C      3.180406    1.541522    0.857266
C     -3.164342    1.933909    0.582465
C     -1.544778   -2.170412   -0.163250
C      2.956238    0.086408    0.790928
C     -0.381532   -1.671303   -0.543858
C     -2.461174    1.219079   -0.533925
C      1.705012   -0.415615    0.213153
C     -0.522845   -0.225711   -0.675626
C      2.002681   -1.467260   -0.812233
C     -2.561545   -1.089843    0.017942
C     -1.686420    0.139133    0.161533
H      4.875792    0.835404    2.059728
H      5.301924    2.068169    0.831443
H      4.455398    2.538247    2.340978
H      3.377352    1.774095   -1.321821
H      2.264391    2.909326   -0.523526
H      4.011084    3.120887   -0.374121
H     -3.873749    3.983221    0.851633
H     -2.243548    3.764137    0.039084
H     -3.758274    3.395124   -0.860153
H     -1.629785   -3.870806    1.132667
H     -1.275358   -4.283819   -0.555119
H     -2.937493   -3.796537   -0.171118
H      1.322261   -0.534604   -2.686523
H      2.403776   -1.918070   -2.817270
H      3.068619   -0.346858   -2.380324
H     -2.779143   -2.095215    1.886650
H     -3.818092   -0.579928    1.755740
H     -4.229738   -2.057162    0.877107
H     -2.846689    1.789685    2.668495
H     -1.553889    2.686086    1.728161
H      4.398629   -0.150095   -0.850660
H      4.904339   -0.919924    0.662326
H     -4.391264    1.045580   -1.541846
H     -2.936556    0.687479   -2.550040
H      3.247239   -2.573462    0.610526
H      3.888602   -2.506412   -1.124444
H     -3.202820   -1.531591   -2.022844
H     -4.493615   -1.106160   -0.888253
H     -0.424586    0.676374    1.883474
H     -1.886783   -0.216274    2.300283
H      1.120940    0.960977   -1.325167
H      0.536996    1.445186    0.267146
H      1.019562   -3.114889    0.070291
H      0.808807   -3.038805   -1.739748
H      2.425302    1.981016    1.534999
H     -4.185491    1.547523    0.741661
H      3.101917   -0.284592    1.856339
H     -1.772406    1.914649   -1.096694
H      1.130581   -0.942640    1.038398
H     -0.829933   -0.043583   -1.752914
