92

C     10.220724    0.035465   -2.876980
C      0.373884   -1.497647   -2.660786
C      8.196066   -0.845524    1.640084
C      1.814822    1.421042    1.092476
C      9.087032   -1.861052    1.370348
C      0.584443    0.873104    1.491939
C      7.032559    1.283449    1.011226
C      8.727616    0.115656   -0.447319
C      1.679268    0.237644   -0.941083
C      5.372346    3.287796    0.360096
C    -10.334526    1.056065   -0.591270
C      5.659084    0.594764   -0.968363
C     -5.589345   -0.716647    1.393395
C      8.002286    0.170101    0.721528
C      2.382945    1.121932   -0.111995
C      5.686028    0.877999    0.533792
C      4.640487    1.979885    0.575568
C      9.816321   -1.922101    0.202290
C     -0.105354    0.005352    0.679915
C      9.629142   -0.914705   -0.716551
C      0.484298   -0.295139   -0.554383
C     -9.055324    0.265705   -0.681865
C     -4.450334   -0.403111    2.382667
C     -8.789261   -0.225398   -2.062800
C     -4.382644   -1.584603    3.307493
C     -7.536374    0.326282   -2.674541
C     -3.343527   -2.519069    2.762944
C     -6.365086    0.430659   -1.761971
C     -2.026845   -1.775004    2.824444
C      3.696720    1.666135   -0.552505
C     -6.809070    0.151702   -0.349252
C     -2.107249   -0.434585    2.102691
O      4.508405    4.377162    0.376879
O    -10.275203    2.280092   -1.240588
O     10.711975   -2.958409   -0.049992
O     -8.812816   -1.633603   -2.117371
O     -3.953845   -1.197031    4.587635
O     -7.778049    1.547088   -3.340561
O     -3.549535   -2.865310    1.430942
O     -5.312852   -0.427550   -2.078867
O     -1.642276   -1.593267    4.155175
O     10.361849   -0.972968   -1.890548
O     -0.186064   -1.169858   -1.406441
O      4.331335    0.659721   -1.270392
O     -5.832653    0.399461    0.587866
O     -1.295278   -0.590648    0.946607
O     -7.956602    0.927104   -0.124440
O     -3.357114   -0.126331    1.646124
H     10.274033    1.054331   -2.409871
H     11.046210   -0.079344   -3.636305
H      9.235357   -0.045077   -3.355014
H      0.593649   -0.553622   -3.238670
H     -0.415422   -2.025891   -3.245865
H      1.308641   -2.063050   -2.572589
H      7.650057   -0.844615    2.570127
H      2.297807    2.106045    1.780889
H      9.250238   -2.663643    2.077418
H      0.165329    1.126060    2.440665
H      7.400715    2.135655    0.402532
H      7.066065    1.439427    2.093125
H      8.608549    0.879284   -1.184413
H      2.159910    0.022298   -1.891949
H      5.918891    3.304111   -0.590760
H      6.057205    3.419939    1.225614
H    -11.145136    0.467156   -1.086605
H    -10.666102    1.160694    0.473544
H      6.274796    1.381150   -1.441881
H      6.037963   -0.425538   -1.110738
H     -6.468084   -0.976658    1.989523
H     -5.340191   -1.541272    0.720388
H      5.362955   -0.028253    1.108167
H      4.219516    2.004035    1.571966
H     -9.214726   -0.638247   -0.023572
H     -4.829667    0.447299    2.994499
H     -9.649258    0.105384   -2.713292
H     -5.367275   -2.089731    3.451384
H     -7.244954   -0.383602   -3.504067
H     -3.206423   -3.425909    3.393165
H     -6.015748    1.503050   -1.765956
H     -1.278927   -2.463600    2.361915
H      3.520965    2.547634   -1.205576
H     -7.133101   -0.910802   -0.236928
H     -1.681373    0.372026    2.762800
H      4.505927    4.882482    1.223385
H    -11.173911    2.702053   -1.124180
H     11.246169   -3.004149   -0.900463
H     -9.459790   -1.919082   -1.424096
H     -4.541399   -0.487425    4.959198
H     -7.753845    2.280296   -2.670193
H     -3.810550   -3.837039    1.354055
H     -4.892604   -0.141654   -2.932186
H     -1.064874   -2.354013    4.407291
