94

C      5.468381   -3.710499    1.354822
C     -5.369363   -1.591274    3.336234
C     -4.128753    0.368898   -3.500137
C      3.563162    0.842360    0.280046
C      4.954454    0.893131    0.058797
C      3.778101   -1.387415    0.914838
C     -3.626938   -0.998638    1.246849
C     -3.210137   -0.359979   -0.984253
C     10.190121    1.204738   -3.102416
C     -9.346847   -1.730405    0.529559
C     -0.393261    0.929366    1.660290
C      0.649551   -1.259913   -0.869705
C      2.959808   -0.293184    0.708780
C     -2.702067   -0.712586    0.234436
C      0.601970    0.570055    0.547203
C     -0.331273   -0.177118   -0.388834
C      5.756150   -0.198072    0.266874
C      5.126300   -1.362998    0.708316
C     -4.985041   -0.932958    1.043178
C     -4.594985   -0.295021   -1.184850
C      9.615101    1.403368   -1.709392
C     -9.647158   -0.262122    0.317450
C     10.738682    1.287906   -0.693099
C    -10.160175   -0.089991   -1.073151
C     10.135052    0.870757    0.629595
C     -9.647980    1.240395   -1.596444
C      8.755232    1.456004    0.694197
C     -8.130822    1.126248   -1.643055
C      1.532584   -0.467244    0.980386
C     -1.278963   -0.812852    0.547712
C     -5.492092   -0.579464   -0.178228
C      7.865371    0.854498   -0.389759
C     -7.613270    0.662788   -0.315610
O     11.166046    2.185780   -3.291208
O     -9.041608   -2.029724    1.845500
O     11.345655    2.516923   -0.584670
O    -11.541140   -0.144430   -1.067558
O     10.115871   -0.500177    0.790002
O    -10.163280    1.536676   -2.853947
O      8.832753    2.843614    0.591874
O     -7.653581    2.381896   -2.010133
O      5.943197   -2.468042    0.916811
O     -5.893984   -1.220960    2.061183
O     -5.010432    0.074402   -2.461292
O      1.145577   -1.669379    0.386184
O     -1.093118   -0.249259    1.810741
O      7.105978   -0.195197    0.067131
O      8.634835    0.440263   -1.487638
O     -8.591778    0.552381    0.656980
O     -6.832923   -0.490695   -0.464494
H      4.674841   -4.117354    0.686786
H      6.298720   -4.441977    1.311187
H      5.081532   -3.656714    2.387178
H     -4.727194   -2.487990    3.133371
H     -6.152478   -1.798960    4.063300
H     -4.706231   -0.812405    3.746825
H     -3.518679   -0.509481   -3.746502
H     -3.442079    1.213888   -3.293860
H     -4.743072    0.609473   -4.403451
H      2.984067    1.711042    0.106844
H      5.371366    1.827987   -0.280809
H      3.354699   -2.339482    1.262448
H     -3.240508   -1.282495    2.225413
H     -2.526499   -0.133928   -1.790105
H     10.664266    0.192507   -3.095679
H      9.392507    1.250798   -3.851179
H    -10.273433   -2.288532    0.278140
H     -8.570866   -2.097843   -0.192216
H     -1.010585    1.776375    1.297524
H      0.191581    1.182301    2.562181
H      0.156035   -2.060146   -1.417649
H      1.481391   -0.768540   -1.418091
H      0.967228    1.501212    0.148907
H     -0.711608    0.430438   -1.192653
H      9.169905    2.412084   -1.675133
H    -10.476292   -0.011685    1.027460
H     11.445294    0.519548   -1.036645
H     -9.726092   -0.895095   -1.736793
H     10.708806    1.303913    1.480419
H     -9.895417    1.995751   -0.844180
H      8.339129    1.254530    1.709309
H     -7.847586    0.425589   -2.475881
H      1.394873   -0.649179    2.089724
H     -1.067642   -1.914078    0.695017
H      7.229521    1.682185   -0.738952
H     -6.919150    1.473137    0.054691
H     10.840410    3.067548   -3.011736
H     -8.602429   -2.903086    1.885531
H     11.493894    2.755670    0.357574
H    -11.871526   -1.045774   -1.286061
H     10.535172   -0.987475    0.045340
H    -10.839204    2.249053   -2.736871
H      7.911357    3.223837    0.467134
H     -8.316989    3.090506   -1.863074
