94

C      4.369798   -1.740643   -2.429559
C     -5.278263    1.363807    3.768464
C     -3.826268   -0.185165   -3.152854
C      4.261635    1.040816    1.779338
C      5.593680    0.892306    1.411210
C      3.612279   -0.246344   -0.091740
C     -3.519692    0.590263    1.836369
C     -2.986279    0.067762   -0.436355
C     10.670338   -2.322567    0.260724
C    -10.602944   -0.291607    1.885004
C      0.517019   -1.179604    0.311554
C      0.144109    2.018715    1.621658
C      3.278819    0.474378    1.031319
C     -2.608937    0.198143    0.882016
C      0.916381    0.251018    0.268801
C     -0.324577    0.986063    0.658890
C      5.946637    0.180706    0.300383
C      4.951659   -0.393339   -0.458071
C     -4.805686    0.849619    1.462499
C     -4.291082    0.336305   -0.783764
C     10.204459   -0.902331    0.015455
C     -9.718554   -0.347920    0.659752
C      9.677712   -0.831176   -1.398217
C    -10.445386    0.001572   -0.606123
C      9.582654    0.654148   -1.728467
C     -9.551683    0.588351   -1.660477
C      9.099073    1.377555   -0.518706
C     -8.172015   -0.004862   -1.522732
C      1.861290    0.608774    1.393476
C     -1.187484   -0.090968    1.255461
C     -5.227463    0.729702    0.141098
C      8.413719    0.495481    0.504599
C     -7.600223    0.114574   -0.153271
O     11.121237   -2.522487    1.543926
O    -10.967258    1.005170    2.215806
O     10.522985   -1.483188   -2.295760
O    -11.076932   -1.117121   -1.104570
O      8.679764    0.801258   -2.765144
O     -9.540774    1.973465   -1.671524
O     10.203143    1.961095    0.125908
O     -8.137538   -1.311961   -1.993252
O      5.288123   -1.112436   -1.579379
O     -5.719356    1.247224    2.442121
O     -4.666641    0.203686   -2.112993
O      1.507608    1.902459    1.758735
O     -0.816045   -1.284260    0.661266
O      7.237317    0.018855   -0.082046
O      9.169026   -0.607576    0.878724
O     -8.541352    0.356022    0.830285
O     -6.531975    1.009019   -0.141827
H      4.877827   -1.938012   -3.417914
H      3.939743   -2.680871   -2.011660
H      3.478754   -1.083036   -2.634249
H     -4.962739    0.382983    4.197202
H     -4.406329    2.037651    3.779131
H     -6.105321    1.735235    4.424065
H     -2.812285    0.254797   -3.121680
H     -4.317409    0.133479   -4.111266
H     -3.784053   -1.296694   -3.169734
H      4.012480    1.612344    2.669344
H      6.330777    1.369671    2.050116
H      2.871837   -0.717604   -0.723312
H     -3.156459    0.672333    2.854076
H     -2.295380   -0.239324   -1.211545
H     11.415709   -2.609874   -0.515905
H      9.786056   -2.985950    0.112288
H    -10.120144   -0.846091    2.693060
H    -11.547456   -0.825421    1.606569
H      1.088153   -1.758171    1.091857
H      0.697582   -1.712293   -0.651964
H     -0.311765    1.798573    2.617699
H     -0.187665    3.053817    1.351531
H      1.304800    0.578378   -0.719175
H     -0.836086    1.450287   -0.216030
H     11.054474   -0.195085    0.104029
H     -9.420329   -1.424888    0.555756
H      8.659884   -1.267791   -1.404700
H    -11.242892    0.742445   -0.355173
H     10.587576    0.998455   -2.050646
H     -9.941939    0.263631   -2.648720
H      8.429382    2.209011   -0.799729
H     -7.522972    0.579639   -2.231762
H      1.584929   -0.052246    2.261930
H     -1.058426   -0.096979    2.349020
H      8.176192    1.127948    1.389595
H     -7.166538   -0.897937    0.102269
H     12.083535   -2.363023    1.667012
H    -10.217074    1.433943    2.712949
H     10.146308   -2.411941   -2.394620
H    -10.751698   -1.417507   -1.981397
H      8.262867   -0.067255   -3.020984
H    -10.085489    2.280642   -0.892274
H     10.926381    2.169672   -0.525447
H     -8.150854   -1.291156   -2.997621
