69

C     -8.597986    1.418034    0.905062
C     10.537283    1.883867    1.717381
C      9.341000    1.944956    1.037651
C      0.226662   -1.790180   -0.093371
C     -0.401919    0.432583    0.658631
C      0.058392   -0.026476   -1.641485
C     -1.159692   -2.363627    0.224008
C     -1.263216   -0.346921    1.661123
C      1.155911   -0.272858   -2.610541
C     10.605730    0.585064    2.220560
C     -5.804381    1.609400   -0.602465
C     -6.894259    2.536559   -1.091449
C     -5.335174   -2.662664    1.550085
C     -4.174070   -0.460936    0.457576
C     -3.964522   -2.557533    1.512997
C     -6.163639   -1.677496    1.045520
C     -3.363186   -1.439411    0.958342
C      8.743484    0.709492    1.151787
C     -5.538236   -0.559741    0.491131
C      4.433799    0.887026   -1.257697
C      7.454824    0.362946    0.568119
C      3.395094    0.063282   -1.544797
C      5.545384    0.488248   -0.516844
C      4.618383   -1.559897   -0.330026
C      2.414301    1.777700   -2.681498
F     -3.199286   -3.547038    2.018261
F     -7.509839   -1.755643    1.069633
N      4.710796   -2.781344    0.132873
N      6.630704    1.178129   -0.157786
N      3.541244   -1.212611   -1.034839
N      6.802802   -0.826449    0.614423
N      0.238853   -0.389046   -0.296190
N     -1.948073   -1.388981    0.943462
N      2.393410    0.511054   -2.251882
N      5.657137   -0.761585   -0.033190
O      1.617155    2.475578   -3.364654
O     -9.187629    3.616605   -0.404870
O      9.515304   -0.055114    1.850219
O     -6.342718    0.443003   -0.023155
S      4.014809    2.383922   -2.009438
S     -7.950184    3.018556    0.315981
Cl     0.688176    0.000000    0.000000
H     -8.696344    0.705584    0.060682
H     -7.839789    1.060546    1.658072
H     -9.585081    1.584412    1.410106
H     11.240048    2.697303    1.812209
H      8.992256    2.828820    0.528411
H      0.505263   -2.289585   -1.065139
H      0.944281   -2.149032    0.674687
H     -1.112915    1.119786    0.144476
H      0.303582    1.012815    1.305608
H     -0.861466   -0.524693   -2.091853
H     -0.199440    1.063600   -1.709766
H     -1.007556   -3.229909    0.898982
H     -1.667855   -2.712270   -0.699901
H     -1.958659    0.396466    2.102166
H     -0.595549   -0.775570    2.459468
H      0.845201   -0.040434   -3.626777
H      1.427147   -1.346194   -2.592119
H     11.436058    0.219546    2.808320
H     -5.191550    2.146184    0.148500
H     -5.134251    1.396387   -1.453278
H     -6.444504    3.435708   -1.564627
H     -7.509558    2.063056   -1.886636
H     -5.813951   -3.539924    1.985324
H     -3.710417    0.420268    0.019976
H      3.950121   -3.476268   -0.047410
H      2.830481   -1.957054   -1.188647
H     -0.688176    0.000000    0.000000
