39

C     -3.220544   -1.570726    0.898089
C      1.788651   -2.137781   -0.896078
C      3.066766   -1.960519   -0.455130
C     -0.418711    2.553346   -2.101129
C     -0.961998    1.348554   -2.008307
C     -0.482426    0.743771    1.674958
C     -1.232857   -0.549341    1.801589
C     -0.557559   -1.505348   -1.193152
C      2.376040    0.159148    0.470124
C      0.547035    2.401361    0.235482
C      0.793488   -1.179948   -0.663940
C      3.343014   -0.797845    0.230765
C     -0.085876    3.219720   -0.847189
C     -1.158888    0.841730   -0.636080
C      1.086317   -0.029545    0.019572
C     -1.603783   -0.597912   -0.604199
C      0.023643    0.973185    0.257326
N     -1.934251   -0.999812    0.688491
O      4.627273   -0.562452    0.704081
O     -0.329656    4.466336   -0.684409
H     -3.179947   -2.199230    1.812119
H     -4.037079   -0.836126    1.049902
H     -3.531281   -2.228855    0.067680
H      1.569681   -3.053015   -1.436312
H      3.824144   -2.719183   -0.647521
H     -0.213395    3.069511   -3.032974
H     -1.222614    0.820241   -2.909413
H      0.417425    0.688289    2.321739
H     -1.080917    1.608596    2.024953
H     -1.950286   -0.414982    2.664380
H     -0.534397   -1.356304    2.165454
H     -0.793885   -2.541691   -0.818459
H     -0.569396   -1.554276   -2.284761
H      2.663169    1.055593    1.025352
H      0.485055    2.904815    1.210024
H      1.642710    2.411272   -0.033244
H     -1.989873    1.437214   -0.184637
H     -2.512147   -0.663418   -1.260200
H      5.347354   -1.244372    0.541969
