46

C      4.006305   -0.196690   -0.125798
C     -3.471526   -1.947207   -0.183262
C     -1.488567    2.381086    1.655192
C     -1.158142    3.581429    1.071997
C      2.310727   -1.704038    0.749980
C      1.004869   -1.252702    1.408538
C     -0.596494   -0.334885   -1.829089
C     -2.019683   -0.549781   -1.495922
C     -1.462080   -0.055654    1.849076
C      0.085107    2.333905   -0.559256
C      1.692473    0.017764   -1.007935
C      2.683346   -0.917322   -0.437763
C     -1.040349    1.181103    1.140389
C     -0.359663    3.556352   -0.051554
C     -0.252263    1.134938    0.033840
C     -1.414976   -1.164082    0.786414
C      0.281213   -0.111428   -0.595327
C     -0.003827   -1.283189    0.307355
N     -2.371588   -1.014701   -0.225836
O     -0.008319    4.751661   -0.663862
O      0.138422   -2.487755   -0.371544
H      4.867229   -0.881594   -0.277812
H      4.131375    0.688772   -0.757345
H      4.036984    0.093159    0.957243
H     -4.300968   -1.467929    0.407237
H     -3.823159   -2.098795   -1.224855
H     -3.200239   -2.919655    0.240587
H     -2.116496    2.410114    2.537803
H     -1.528299    4.518552    1.502454
H      3.130709   -1.744888    1.495327
H      2.131719   -2.784908    0.477141
H      1.201952   -0.206094    1.760060
H      0.809004   -1.933520    2.237178
H     -0.154274   -1.135568   -2.456292
H     -0.484359    0.612682   -2.431010
H     -2.602961    0.396732   -1.699296
H     -2.437121   -1.269334   -2.263589
H     -2.523208    0.033792    2.166605
H     -0.832832   -0.307349    2.701434
H      0.707258    2.412101   -1.447239
H      2.031443    1.059572   -0.718519
H      1.772108    0.036791   -2.136311
H      2.977977   -1.645924   -1.250923
H     -1.639822   -2.109417    1.363026
H      0.572657    4.760570   -1.484014
H      0.718337   -2.436664   -1.154524
