46

C     -3.466751   -2.142317   -0.092992
C      1.711445    3.491953    0.716117
C      2.681435   -0.828753   -1.702741
C      3.037522   -2.090182   -1.298228
C     -2.792063    0.044046   -0.911443
C     -1.436770    0.490708   -1.431069
C      0.238404    0.295626    1.899580
C      0.832465    1.656720    1.846649
C      1.296829    1.180894   -1.613494
C      1.241650   -2.064879    0.279925
C     -1.360878   -1.205333    0.752846
C     -2.719738   -0.846876    0.268763
C      1.604487   -0.196504   -1.108740
C      2.317031   -2.714895   -0.302496
C      0.875647   -0.795491   -0.120670
C      0.458043    1.876277   -0.542601
C     -0.294805   -0.194170    0.572508
C     -0.728159    1.026752   -0.192423
N      1.281764    2.104854    0.581461
O      2.642459   -3.991638    0.138099
O     -1.647813    1.768636    0.503776
H     -2.964780   -3.010103    0.383773
H     -3.462739   -2.268541   -1.204525
H     -4.507773   -2.118871    0.222484
H      1.196473    4.148003   -0.019913
H      2.796217    3.571659    0.510085
H      1.460559    3.896698    1.723219
H      3.260922   -0.356736   -2.486137
H      3.881879   -2.613216   -1.748417
H     -3.358095   -0.399674   -1.765784
H     -3.346601    1.000514   -0.681209
H     -1.631997    1.284717   -2.175440
H     -0.887386   -0.354800   -1.889892
H      0.955087   -0.459311    2.300556
H     -0.611203    0.310538    2.610549
H      0.169871    2.437616    2.292817
H      1.731561    1.645761    2.534327
H      0.807042    1.172039   -2.588425
H      2.263571    1.721707   -1.662863
H      0.704932   -2.611238    1.072185
H     -1.409688   -1.497942    1.822803
H     -1.069935   -2.158476    0.217014
H     -3.328707   -0.398921    1.082942
H      0.085030    2.812556   -1.004690
H      3.303362   -4.040595    0.906861
H     -1.809803    1.421185    1.405326
