42

C     -3.651664    0.254838    1.659394
C      5.732233   -0.651623   -0.617551
C      2.340134   -0.260447    1.745304
C     -2.701345    1.042709   -1.871820
C      3.456569   -0.389788    0.956923
C     -2.324859    1.422662   -0.666041
C     -1.207400   -1.465412   -0.462236
C     -2.352699   -1.372188    0.453673
C     -0.100007   -0.068377    2.023258
C      2.052316   -0.403324   -0.979300
C     -0.415631    0.100879   -2.214468
C      1.087658   -0.203371    1.167728
C     -1.855023    0.158511   -2.664917
C      3.311568   -0.461574   -0.412000
C     -1.066572    1.002739   -0.041738
C      0.931795   -0.273804   -0.193673
C     -1.278912    0.587039    1.398522
C     -0.453507   -0.201216   -0.731070
N     -2.379979   -0.336589    1.403078
O     -2.289734   -0.490704   -3.630397
O      4.454164   -0.593614   -1.212107
H     -4.256214    0.219387    0.713947
H     -4.258747   -0.355724    2.389998
H     -3.549772    1.264630    2.066675
H      5.900254    0.152404    0.130230
H      5.934572   -1.636247   -0.134464
H      6.494064   -0.526315   -1.428873
H      2.453853   -0.202961    2.838804
H     -3.641629    1.397775   -2.254539
H      4.445883   -0.433538    1.435202
H     -2.985793    2.076764   -0.120190
H     -1.580429   -1.872117   -1.448886
H     -0.470398   -2.223857   -0.115973
H     -2.433553   -2.353888    1.011044
H     -3.323967   -1.330888   -0.126019
H     -0.345401   -1.114436    2.375609
H      0.220356    0.452466    2.957994
H      1.956628   -0.462127   -2.076671
H      0.000085    1.096944   -2.425466
H      0.070274   -0.717889   -2.791519
H     -0.326530    1.827643   -0.103954
H     -1.592638    1.468679    1.996491
