140

C     10.650046   -0.755004   -2.611556
C     -6.773020    6.010283   -0.001152
C     -5.880529   -4.889540   -1.897856
C     -0.346569   -4.614039    2.917617
C      8.680608    2.770070    0.524226
C      9.939041    2.289039    2.470823
C      8.549718    4.087404    0.897338
C      9.801057    3.625399    2.842539
C      2.576071   -2.102741   -1.252744
C      7.462246   -1.763408   -0.795516
C     -1.697329    3.189534   -1.192672
C      8.216489   -0.216537   -2.899930
C      2.642317   -2.237339    2.450423
C      9.247504   -1.183968   -2.305175
C     -5.701471    5.640999    0.997743
C     -6.141624   -3.402281   -1.841414
C     -1.298377   -3.410805    2.868569
C      9.373576    1.833064    1.288885
C      9.125674    4.531434    2.090943
C      2.959292   -2.060942    0.156298
C      8.929636   -1.245493   -0.831777
C     -2.252267    1.766809   -1.237007
C      1.932143   -1.626138    1.148147
C      3.129834   -1.055957   -2.114823
C     -6.302565    5.463632    2.327984
C     -7.558359   -3.081315   -2.120967
C     -2.470021   -3.622165    1.982915
C     -3.697931    1.835152   -1.708728
C     -6.888114    4.112659    2.514458
C     -7.680854   -1.544360   -2.107428
C     -2.158816   -3.149950    0.593145
C     -5.808332    3.110468    2.144177
C     -7.306464   -1.175963   -0.686353
C     -4.618218    1.566607   -0.508901
C     -1.495342   -1.774819    0.592955
C     -4.362030    0.127054   -0.103694
C      4.272799   -1.462417    0.442642
C      4.640953   -0.239539   -0.279848
C      9.477823    0.455783    0.834140
C     -5.281182    3.360594    0.764564
C     -5.875457   -1.614978   -0.372479
C     -0.355834   -1.721366    1.528989
C     -2.883426   -0.058543   -0.072066
C      5.558335   -1.104423   -2.187727
C      6.615125   -0.618849   -1.291320
C      4.336723   -0.338692   -1.755930
O     -1.690517    3.744088   -2.469110
O      8.966747    5.871888    2.425065
O      3.311313   -1.640113   -3.420451
O     -5.314329    5.669314    3.295253
O     -7.892925   -3.591843   -3.381928
O     -3.600013   -2.981175    2.502475
O     -3.959891    0.915005   -2.716539
O     -8.057464    3.906409    1.791949
O     -9.006260   -1.269927   -2.343461
O     -1.304262   -4.090320    0.011312
O     -6.336094    1.833261    2.285826
O     -8.195683   -1.918311    0.133417
O     10.111097   -0.430630    1.446707
O      5.544918   -1.905804   -3.077439
O      4.395618    0.896319   -2.383153
O      3.748293    0.148541    2.495070
O      7.401550    0.351654   -1.920970
O     -4.942584    4.640006    0.487046
O     -5.607449   -2.877565   -0.702366
O     -0.588484   -2.280470    2.766349
O      8.854108    0.071833   -0.336883
O     -2.259607    1.226721    0.042628
O      0.817882   -2.372382    1.077490
O     -4.273229    2.452981    0.490373
O     -2.447434   -0.848448    0.988046
O     -4.948898   -0.759536   -0.952260
O      6.012266   -0.026128   -0.192854
S      4.235693   -1.316683    2.248714
H     11.384941   -1.559322   -2.620353
H     10.994794    0.100685   -1.986199
H     10.633052   -0.324105   -3.656442
H     -6.391395    5.853198   -1.054883
H     -7.699820    5.446109    0.089234
H     -6.933215    7.118539    0.080681
H     -5.819722   -5.362157   -0.899757
H     -4.939431   -5.090957   -2.485603
H     -6.713425   -5.404423   -2.422124
H      0.041585   -4.902967    1.938983
H      0.534828   -4.241832    3.500349
H     -0.786286   -5.434339    3.497286
H      8.216751    2.486779   -0.415001
H     10.484469    1.591185    3.089543
H      8.015561    4.830311    0.317250
H     10.258573    3.932409    3.780288
H      2.907212   -3.098943   -1.675984
H      1.456210   -2.155266   -1.408385
H      7.317962   -2.018132    0.272534
H      7.436063   -2.655468   -1.423767
H     -2.357853    3.839470   -0.572715
H     -0.659742    3.192389   -0.819262
H      7.649782   -0.688204   -3.728061
H      8.802857    0.607835   -3.345894
H      2.747894   -3.277083    2.210958
H      2.118228   -1.934372    3.333076
H      9.117365   -2.219630   -2.685987
H     -5.021748    6.547350    1.062323
H     -5.555440   -2.959083   -2.706366
H     -1.728972   -3.409813    3.923784
H      3.097294   -3.195385    0.451247
H      9.558914   -1.926854   -0.243462
H     -1.676029    1.177091   -1.970224
H      1.913676   -0.571725    1.313953
H      2.326875   -0.275225   -2.353146
H     -7.133538    6.226816    2.438324
H     -8.194621   -3.474740   -1.320476
H     -2.712694   -4.700492    1.945415
H     -3.924263    2.838860   -2.085473
H     -7.105557    3.985807    3.611690
H     -6.996926   -1.112599   -2.853216
H     -3.083672   -3.163507    0.005402
H     -4.993062    3.224857    2.883419
H     -7.507228   -0.130458   -0.467251
H     -5.621546    1.790680   -0.836984
H     -1.288174   -1.591617   -0.466870
H     -4.709186    0.049725    0.950999
H      5.047197   -2.269468    0.245035
H      4.125609    0.625665    0.122468
H     -6.131117    3.094835    0.061322
H     -5.804588   -1.455071    0.717486
H     -0.053441   -0.696036    1.741373
H     -2.455378   -0.471174   -0.995279
H     -0.800863    3.877854   -2.852557
H      9.367953    6.235163    3.276891
H      2.695283   -2.395174   -3.504462
H     -4.805975    6.487113    3.010644
H     -8.852379   -3.499118   -3.509532
H     -3.772013   -3.404087    3.379359
H     -3.986512    1.346232   -3.618845
H     -8.305400    2.945658    1.935539
H     -9.260630   -0.454435   -1.845140
H     -1.700962   -4.569884   -0.730676
H     -5.924985    1.325408    3.015291
H     -7.681520   -2.602562    0.620093
H      4.581140    0.794592   -3.367555
