65

C      5.162005    1.203200   -1.770134
C     -4.399443   -1.369773    0.745424
C     -4.040546   -0.658713   -1.563308
C     -1.523163    1.360223   -1.473531
C      2.317375   -0.147841   -1.585394
C      2.112430   -0.023933    2.210198
C     -3.550581    2.209230    0.217012
C     -2.162397    1.982992    0.816143
C      4.006861   -1.436625    0.831746
C     -1.580170   -1.442862   -0.544605
C      2.261444    1.678666    0.036723
C      4.927765   -0.034571   -0.982584
C      4.044624   -0.072096    0.217442
C     -0.383198   -1.808381    0.307752
C      0.829148    1.771155    0.515203
C     -2.281833   -0.340024    0.201271
C     -4.403699    1.002168    0.268519
C      2.541047   -1.900867    0.722254
C     -0.092815    0.656723    0.319868
C      0.433319   -0.578423    0.475842
C     -3.733614   -0.274251   -0.112733
C     -1.495500    0.929912   -0.020718
C      2.626394    0.228144   -0.178836
C      1.849713   -0.580318    0.833500
O      5.474150   -1.096943   -1.309953
O      0.243978   -2.854990   -0.300611
O      0.524001    2.844607    1.069616
O     -5.502931    1.191994   -0.569456
O      2.278174   -2.679246    1.818469
H      4.414631    1.252699   -2.574236
H      5.181647    2.112812   -1.124436
H      6.205793    1.134903   -2.195337
H     -5.468807   -1.194921    0.869543
H     -3.877217   -1.427612    1.740984
H     -4.151913   -2.324170    0.229545
H     -4.742839   -1.525754   -1.630649
H     -4.593567    0.174931   -2.082467
H     -3.134135   -0.973744   -2.109471
H     -0.728171    0.873557   -2.077839
H     -2.501595    1.330924   -1.939241
H     -1.224293    2.451119   -1.457378
H      3.165001   -0.713912   -2.019930
H      1.375568   -0.733575   -1.620440
H      2.110656    0.770450   -2.164816
H      1.133349    0.428327    2.547075
H      2.919853    0.701458    2.267954
H      2.358753   -0.871769    2.880609
H     -4.016651    2.997945    0.881586
H     -3.493240    2.684965   -0.783918
H     -2.305682    1.590951    1.825833
H     -1.687714    2.981344    0.782922
H      4.335698   -1.429186    1.879724
H      4.671632   -2.102521    0.234188
H     -1.191437   -1.020453   -1.493015
H     -2.233622   -2.295999   -0.776422
H      2.962291    2.170310    0.719769
H      2.281201    2.230719   -0.924575
H      4.445675    0.706133    0.926445
H     -0.790777   -2.093565    1.322046
H     -2.189301   -0.568882    1.292334
H     -4.839119    0.941656    1.310391
H      2.488313   -2.397178   -0.250429
H     -0.091032   -3.696238    0.139640
H     -6.363359    0.960301   -0.136088
H      3.091869   -2.885179    2.374019
