87

C      8.195009    3.807294    0.084462
C      6.077604    3.667028   -1.326885
C     -3.474701    3.459203    2.908739
C     -4.917875    5.457745    2.231878
C      2.240252    0.448115    2.104254
C      5.319175    1.269245   -0.047450
C     -4.129728    2.161928    0.511632
C      1.604320   -0.627275   -0.692262
C      6.578390    1.956993    0.333028
C     -4.680520    3.512428    0.813256
C      4.461941    1.212487    1.185388
C      2.797458    0.053209   -0.213878
C     -3.290981    2.233005   -0.755625
C     -2.679099   -6.808723    2.649067
C      0.161169   -1.056165   -5.528689
C     -3.173120   -6.157997    1.541292
C      0.443393   -2.058203   -4.635244
C      0.505860   -0.993574    0.207891
C     -1.343188   -4.866321    3.022440
C     -1.035982    0.078455   -3.818497
C     -1.428176    0.614228   -1.198483
C     -1.718379   -1.977917    0.530144
C      6.941358    3.082903   -0.263870
C     -4.372639    4.118404    1.936396
C      3.141209    0.533039    0.938664
C     -2.716895    0.907371   -1.101083
C     -1.740137   -6.131774    3.398657
C     -0.586354    0.028699   -5.123982
C     -1.853677   -4.211350    1.890478
C     -0.758954   -0.925419   -2.908264
C     -2.796299   -4.895351    1.140327
C     -1.362711   -2.882300    1.611456
C     -0.017858   -1.995638   -3.314938
C     -3.513836   -0.266008   -1.396551
C     -0.192883   -2.912229   -1.118526
C     -0.665170   -1.658266   -0.504331
C     -1.310962   -0.786761   -1.554279
O     -1.229699   -6.771268    4.519408
O     -0.857145    1.028882   -6.046801
O     -3.332097   -4.296010    0.011220
O     -0.482509   -2.425166    2.440373
O     -4.788534   -0.370322   -1.402978
O     -0.218426   -3.965318   -0.388986
O      0.268352   -2.998618   -2.417437
O     -2.668724   -1.286853   -1.678914
H      9.001694    3.623151   -0.652644
H      7.977190    4.899183    0.047407
H      8.539653    3.579689    1.113838
H      5.054584    3.831046   -0.875919
H      6.472806    4.655897   -1.672246
H      5.973211    2.949161   -2.144082
H     -2.499614    3.304685    2.401092
H     -3.252369    4.124089    3.776365
H     -3.811601    2.478801    3.249106
H     -4.057687    6.073537    2.621737
H     -5.703624    5.423191    3.018886
H     -5.280312    5.942186    1.298723
H      1.429123    1.218811    1.979012
H      2.761101    0.811684    3.039832
H      1.891579   -0.549852    2.372460
H      4.865150    1.805749   -0.877985
H      5.595360    0.218634   -0.302121
H     -4.933945    1.428372    0.416148
H     -3.443574    1.812434    1.310014
H      1.126194   -0.044581   -1.556203
H      1.921558   -1.597614   -1.205751
H      7.194241    1.540398    1.092436
H     -5.332821    3.985687    0.100976
H      4.305536    2.215708    1.626316
H      4.987172    0.591945    1.940375
H      3.614491    0.207179   -0.997343
H     -2.491437    2.988198   -0.671308
H     -3.943692    2.572748   -1.610696
H     -2.997234   -7.805205    2.938251
H      0.512194   -1.085780   -6.565475
H     -3.917665   -6.649742    0.913877
H      1.024054   -2.911813   -4.930142
H      0.907455   -1.856159    0.842817
H      0.090104   -0.259370    0.879642
H     -0.601252   -4.385392    3.653382
H     -1.620112    0.921358   -3.494554
H     -0.659176    1.332373   -1.030434
H     -1.989108   -0.946710    1.017181
H     -2.675115   -2.256992    0.091886
H     -1.717099   -6.629073    5.394776
H     -1.707371    0.939293   -6.606907
H     -4.007871   -4.802738   -0.515229
