87

C      7.646981    1.278764   -1.967215
C      8.575521    0.432465    0.255409
C     -6.298971    3.075224   -3.285317
C     -4.683994    4.397581   -1.771372
C      4.215313   -1.369371    0.830288
C      5.707776   -0.748247   -1.912464
C      2.077462   -3.074878    0.117129
C     -3.193087    1.987214   -1.278549
C      6.669079   -0.653211   -0.817889
C     -4.413655    2.035092   -2.162408
C      4.291845   -0.484410   -1.587761
C      2.716592   -2.203334   -0.863503
C      0.585227   -2.926072    0.172512
C     -4.816050   -4.518771    3.960283
C      1.176548    3.763834   -1.220865
C     -4.459073   -3.293569    4.455574
C      0.164500    3.968891   -0.303173
C     -3.394728    1.047331   -0.150495
C     -4.132251   -3.807522    1.793200
C      0.779097    1.420851   -1.051356
C     -0.662635   -0.761826   -0.213913
C     -2.830232   -0.218377    1.898489
C      7.600499    0.315957   -0.838311
C     -5.115433    3.123739   -2.404503
C      3.723875   -1.386682   -0.564401
C      0.089616   -1.579515    0.530235
C     -4.648940   -4.770065    2.621410
C      1.477217    2.456548   -1.592189
C     -3.757151   -2.544737    2.265320
C     -0.226878    1.642280   -0.137278
C     -3.930119   -2.310779    3.602514
C     -3.210557   -1.510141    1.400228
C     -0.531624    2.910393    0.232647
C      0.331596   -0.910556    1.777885
C     -2.267433    2.054332    1.691982
C     -2.349583    0.794119    0.833399
C     -0.968429    0.504789    0.472179
O     -5.011830   -6.007105    2.135357
O      2.510229    2.226742   -2.532548
O     -3.588273   -1.092800    4.160403
O     -3.112398   -1.875966    0.177700
O      0.994239   -1.326848    2.776520
O     -2.779354    2.173465    2.801969
O     -1.563740    3.116638    1.159242
O     -0.289749    0.301267    1.730961
H      6.672779    1.813185   -2.092277
H      8.470321    2.005893   -1.805831
H      7.903383    0.695082   -2.893232
H      8.286561    1.287362    0.921459
H      9.563307    0.667515   -0.161495
H      8.565714   -0.524182    0.836152
H     -7.093282    3.726349   -2.873044
H     -6.723862    2.049707   -3.370946
H     -5.975598    3.483793   -4.273776
H     -3.648943    4.632909   -2.143581
H     -4.675390    4.230441   -0.674879
H     -5.378370    5.196880   -2.076654
H      4.834147   -0.446503    1.028341
H      3.350167   -1.251812    1.527634
H      4.828897   -2.239296    1.101391
H      5.842750   -1.765785   -2.386867
H      6.007590   -0.008456   -2.711415
H      2.254975   -4.135308   -0.249262
H      2.564675   -3.042039    1.091909
H     -2.365639    1.697787   -1.956203
H     -3.026788    3.048615   -1.020174
H      6.703936   -1.337362    0.018212
H     -4.726523    1.110200   -2.623929
H      4.194423    0.554392   -1.167880
H      3.639400   -0.500675   -2.498396
H      2.373351   -2.201606   -1.891085
H      0.210688   -3.186941   -0.845568
H      0.107978   -3.668371    0.845001
H     -5.232231   -5.298202    4.617442
H      1.751288    4.543626   -1.670954
H     -4.591602   -3.096911    5.509793
H     -0.075248    4.976338   -0.008646
H     -4.355177    1.412316    0.345756
H     -3.739932    0.089992   -0.595855
H     -3.993721   -3.987976    0.738908
H      0.998617    0.380273   -1.328987
H     -0.955989   -1.078032   -1.205963
H     -2.069722   -0.226542    2.711285
H     -3.733203    0.295859    2.332927
H     -4.415478   -6.802866    2.076564
H      2.280248    2.199200   -3.518168
H     -3.725543   -0.951589    5.144964
