44

C     -1.416785   -3.302017   -0.562186
C      0.821783   -2.307465   -0.237484
C      5.352705   -0.666328    0.425410
C      5.770985    1.655077    0.452921
C     -4.899696    0.998510    1.298654
C     -4.434013    0.791157   -1.079992
C     -0.533368   -2.092706   -0.446719
C      6.251844    0.371509    0.545887
C     -5.267931    0.243275    0.024203
C      1.654010   -1.240797   -0.127573
C      4.014138   -0.420067    0.218252
C      4.430295    1.900508    0.245457
C     -1.070045   -0.846339   -0.547589
C      3.524749    0.863361    0.123993
C      1.135626    0.034003   -0.226103
C      3.090009   -1.509951    0.094763
C     -0.213058    0.260786   -0.434540
C      2.089147    1.135904   -0.098333
C     -2.506138   -0.623437   -0.769267
O     -5.178195    2.352685    1.038325
O      7.603894    0.117178    0.755217
O     -6.624673    0.449631   -0.237151
O      3.917782    3.205885    0.147346
O      3.514692   -2.700997    0.177760
O     -0.731621    1.518648   -0.532832
O      1.726794    2.334694   -0.171978
O     -3.239895   -1.636247   -0.865057
O     -3.059018    0.617364   -0.872527
H     -0.799319   -4.233438   -0.454701
H     -1.869831   -3.381267   -1.572862
H     -2.145410   -3.352831    0.265592
H      1.200161   -3.312782   -0.164396
H      5.726526   -1.673972    0.497832
H      6.473298    2.487303    0.546681
H     -3.806709    0.863728    1.441060
H     -5.503101    0.662030    2.148704
H     -4.762301    0.361706   -2.070352
H     -4.632859    1.894225   -1.208045
H     -5.074405   -0.809421    0.215724
H     -6.035257    2.414817    0.551518
H      8.225523    0.011462   -0.028462
H     -6.879636    0.166311   -1.136722
H      4.575261    3.978413    0.235232
H     -0.415959    2.419890   -0.498850
