87

C      8.686437    2.246786    1.787920
C      7.140296    3.726154    0.306829
C     -5.433226    6.640650    0.665194
C     -5.799433    4.900284   -1.220836
C      2.832742    2.497199   -1.107175
C      5.545957    1.472846   -0.247485
C     -4.508653    2.973290    0.286942
C      1.291865    0.292536   -1.760365
C      6.747779    1.370096    0.634205
C     -4.658377    4.346682    0.845086
C      4.287007    1.073179    0.493236
C      2.394303    0.139836   -0.807259
C     -3.029756    2.668776    0.197156
C      1.360094   -6.781330    0.712701
C     -3.975438   -3.954526    1.665604
C      1.993398   -5.574920    0.499025
C     -2.654817   -3.634071    1.909772
C     -0.083218    0.143208   -1.318491
C     -0.543465   -5.913009   -0.367435
C     -4.052630   -2.260620    0.003871
C     -2.153386    0.355363    0.291338
C     -0.308915   -2.259630   -1.625589
C      7.501757    2.407092    0.903607
C     -5.276743    5.256064    0.114213
C      3.156747    1.213689   -0.479329
C     -2.789951    1.310706   -0.352457
C      0.067700   -6.940485    0.266126
C     -4.676184   -3.249712    0.694894
C      0.037226   -4.660207   -0.619236
C     -2.733084   -1.948629    0.254939
C      1.331279   -4.543485   -0.156325
C     -0.697459   -3.613143   -1.293160
C     -2.020385   -2.630560    1.210255
C     -3.161697    0.756399   -1.634775
C     -0.101861   -1.238075    0.691440
C     -0.558031   -1.147428   -0.695858
C     -2.076904   -0.883526   -0.520218
O     -0.620309   -8.148967    0.458820
O     -6.019702   -3.605812    0.476277
O      2.032144   -3.387632   -0.326560
O     -1.888335   -3.926892   -1.659716
O     -3.796527    1.418262   -2.511394
O      0.730148   -0.498470    1.266267
O     -0.692118   -2.290553    1.445457
O     -2.711992   -0.554415   -1.701258
H      9.576847    1.974616    1.194918
H      8.887962    3.191980    2.369403
H      8.535348    1.412852    2.527191
H      7.169016    3.624656   -0.786229
H      7.849580    4.514402    0.671705
H      6.117234    4.032415    0.592476
H     -4.808046    6.810324    1.540378
H     -5.160589    7.334431   -0.172616
H     -6.519068    6.757531    0.893593
H     -6.546037    4.067128   -1.172727
H     -4.998157    4.558174   -1.923030
H     -6.232986    5.809407   -1.677596
H      1.795582    2.763331   -0.882793
H      3.467739    3.298559   -0.654736
H      2.992278    2.534583   -2.201255
H      5.445817    2.510574   -0.625305
H      5.719224    0.805890   -1.118240
H     -4.971075    2.862037   -0.692553
H     -4.978504    2.282629    1.037676
H      1.359559    1.327753   -2.252803
H      1.568721   -0.365008   -2.638421
H      6.974754    0.403828    1.044609
H     -4.273734    4.611287    1.829056
H      4.378593    0.046211    0.861436
H      4.119764    1.825749    1.290657
H      2.708503   -0.783165   -0.335732
H     -2.529083    3.459401   -0.403135
H     -2.626333    2.748174    1.225255
H      1.827681   -7.609319    1.213754
H     -4.463789   -4.746902    2.223260
H      3.007351   -5.474254    0.858628
H     -2.081805   -4.157326    2.652511
H     -0.808295    0.360173   -2.158775
H     -0.315883    0.968918   -0.568127
H     -1.556972   -6.050972   -0.712640
H     -4.580440   -1.709551   -0.746645
H     -1.718971    0.421579    1.298918
H      0.777074   -2.286728   -1.898000
H     -0.799804   -1.955079   -2.619359
H     -1.149872   -8.231176    1.310624
H     -6.232506   -4.317960   -0.211248
H      2.959038   -3.194150   -0.037207
