29

C     -1.672579   -1.345708    1.740759
C      1.886332    1.350986    0.165215
C      0.536085    1.172541    0.496755
C     -2.978158    0.693846   -0.921401
C     -2.340732   -0.584681   -0.470509
C      2.037276   -0.940115   -0.430383
C      2.615431    0.287254   -0.294178
C     -0.066474   -0.056562    0.366906
C      0.699401   -1.099071   -0.097565
C     -2.454466    1.681795    0.056552
C      4.017844    0.490531   -0.634171
C     -1.471029   -0.227326    0.715422
O      0.119104   -2.333329   -0.234837
O     -2.403799    2.927680   -0.176426
O      4.728214   -0.475206   -1.064705
O      4.623810    1.725801   -0.503725
O     -2.074821    0.970506    1.172436
H     -0.790917   -1.409870    2.394569
H     -2.614213   -1.140515    2.278389
H     -1.795249   -2.302872    1.175241
H      2.305523    2.329242    0.285326
H     -0.008401    2.039446    0.857354
H     -2.691713    0.938523   -1.965379
H     -4.084621    0.690151   -0.833243
H     -3.158059   -1.283470   -0.170579
H     -1.774845   -1.109121   -1.267483
H      2.631350   -1.763947   -0.794327
H      0.636467   -3.138324   -0.572943
H      5.543241    1.911816   -0.926355
