40

C     -4.111023    1.773378   -0.454518
C     -3.000101   -1.667653    0.922954
C     -3.771159   -0.576002    0.306422
C      5.364889    0.307092    0.105539
C      4.993292   -0.940637   -0.305838
C     -1.518309   -1.405225    1.038479
C      3.050811    0.786637    0.351628
C      0.276645    0.183079    0.245199
C     -3.354762    0.675584    0.156890
C      4.353673    1.177545    0.438048
C      2.674542   -0.494204   -0.070880
C      3.665728   -1.375859   -0.406448
C      1.262747   -0.825688   -0.133806
C     -1.979753    0.943429    0.671543
C     -1.503015   -0.572895   -1.233744
C     -1.156026   -0.254120    0.170265
O      4.718463    2.455146    0.859871
O      3.444991   -2.666671   -0.837856
O      0.873760   -1.934948   -0.498211
O     -1.468047    2.140680    0.226079
O     -2.006976   -1.682807   -1.502833
O     -1.287132    0.324991   -2.275241
H     -4.571118    2.393150    0.362805
H     -4.888508    1.423001   -1.171605
H     -3.470167    2.476233   -1.035931
H     -3.187703   -2.585750    0.294627
H     -3.445026   -1.928207    1.911407
H     -4.778069   -0.810402   -0.064576
H      6.424504    0.609365    0.170384
H      5.780388   -1.659731   -0.578849
H     -0.959011   -2.344977    0.846065
H     -1.340919   -1.103811    2.115722
H      2.252486    1.500985    0.623370
H      0.504080    0.513598    1.294444
H      0.382226    1.071131   -0.411901
H     -2.028083    0.855107    1.773044
H      4.828606    3.226156    0.194065
H      2.602020   -3.115251   -0.960293
H     -1.705031    2.843780    0.910979
H     -1.923914    0.264773   -3.059622
