29

C     -1.962992   -0.080660    1.514011
C      2.196268   -1.178624   -0.205799
C      0.824193   -1.301951   -0.220128
C     -3.316203   -0.226723   -1.213460
C     -2.076487    0.572472   -0.827562
C      2.039536    1.063587    0.553922
C      2.806618   -0.016496    0.174208
C      0.056573   -0.216013    0.161573
C      0.664423    0.965953    0.548324
C     -2.753979   -1.602363   -1.288907
C      4.254355    0.071235    0.175001
C     -1.409995   -0.380304    0.135297
O     -0.126448    2.041087    0.926839
O     -3.085673   -2.511043   -2.088652
O      4.960454   -0.908531   -0.169651
O      4.925042    1.227681    0.551868
O     -1.790627   -1.655342   -0.287388
H     -2.086158    0.996890    1.656962
H     -2.985839   -0.546885    1.569365
H     -1.362696   -0.578476    2.298789
H      2.798989   -2.040641   -0.508666
H      0.361380   -2.228878   -0.523706
H     -4.002240   -0.191600   -0.343320
H     -3.767557    0.113722   -2.142692
H     -1.424531    0.755904   -1.698715
H     -2.362470    1.524276   -0.340908
H      2.547617    1.964001    0.847649
H      0.240408    2.917821    1.215380
H      5.838036    1.449903    0.143774
