37

C     -3.615471   -2.376389    0.050500
C      2.495970    2.051268   -0.137990
C     -4.117331    1.048500   -1.344586
C     -2.121958   -2.450512    0.254846
C      4.427722    0.469408    0.378105
C      5.178514    0.773677   -0.911729
C      2.066456   -0.246796    0.394551
C     -3.307173    0.431860    0.915984
C      2.975739    0.694118    0.225730
C     -3.189504    0.415683   -0.392599
C     -2.179797   -0.310043    1.467983
C      0.625850   -0.019854    0.242430
C     -1.576098   -1.041341    0.343769
N     -0.153294   -1.020527    0.434559
O      4.683959   -0.077546   -1.924489
O     -1.812013   -0.312133    2.667973
O      0.089903    1.200647   -0.091523
O     -2.049238   -0.292549   -0.770193
H     -3.853183   -1.889864   -0.923516
H     -4.059780   -3.394824   -0.023649
H     -4.133913   -1.880505    0.873936
H      3.365233    2.764115   -0.251564
H      1.899781    2.449239    0.684806
H      1.986742    2.072203   -1.130433
H     -3.893347    2.147583   -1.355788
H     -3.969818    0.653610   -2.372869
H     -5.163969    0.881657   -1.059739
H     -1.686552   -2.950491   -0.642111
H     -1.893628   -2.994403    1.176765
H      4.809898    1.132994    1.177696
H      4.683080   -0.559379    0.656194
H      5.099434    1.837012   -1.193345
H      6.247860    0.506038   -0.792492
H      2.436479   -1.223733    0.658040
H     -4.086384    0.900700    1.514511
H      4.472758   -0.950753   -1.513298
H     -0.682929    1.561332    0.467133
