25

C     -2.340300   -0.703344    1.229428
C      3.499817    0.123173   -0.097780
C      0.933054   -1.415839    0.022614
C     -1.828092    0.135647   -1.024019
C      1.113627   -0.176506    0.414940
C     -0.485183   -1.720396   -0.023473
C     -0.197493    0.466894    0.669824
C     -0.412949    1.672551   -0.194742
C     -1.241155   -0.493900    0.216667
O     -0.913827   -2.894309   -0.243592
O      0.567095    1.777716   -1.183139
O      2.319945    0.496539    0.587603
O     -1.631287    1.502080   -0.818002
H     -2.618889    0.230248    1.722783
H     -3.233300   -1.068753    0.657460
H     -1.998679   -1.496776    1.929157
H      3.328179    0.201240   -1.198102
H      3.821763   -0.902290    0.108802
H      4.298167    0.851133    0.134946
H      1.768449   -2.103421   -0.229326
H     -1.363818   -0.243770   -1.932247
H     -2.924480   -0.026292   -1.073438
H     -0.326599    0.688973    1.749808
H     -0.405825    2.612763    0.390688
H      0.271781    2.486639   -1.816859
