90

C      8.863777    3.181473   -2.572525
C      7.187933    4.701267   -1.303358
C     -3.214645   -0.123366   -3.375178
C     -1.716804   -1.363993   -2.002174
C      6.733301   -0.601442    1.113219
C     -7.302609    4.027177    2.514784
C      8.131308    1.026452   -0.988227
C      3.982147    0.031075    0.903765
C      7.465374    2.352366   -0.745365
C      7.062618    0.037629   -1.321420
C      4.867268    0.210565   -0.274105
C      2.927157   -0.961500    0.512633
C      0.701947   -1.025164    1.433335
C     -0.327478   -1.306617    2.420993
C     -6.661586   -2.583732   -0.966996
C     -6.785712   -1.207192   -1.158558
C     -3.696062    1.907649   -1.673346
C     -4.318589    2.820340   -0.616404
C     -1.195771   -3.622722    2.229702
C     -3.218668   -4.106331    1.005064
C     -4.314854    1.090332    1.043483
C      7.831190    3.386719   -1.521250
C     -2.692202   -0.213044   -2.178403
C      6.138131   -0.088407   -0.162003
C      1.985307   -1.304938    1.620590
C     -1.368234   -2.290100    1.923349
C     -2.116852   -4.520844    1.770440
C     -3.366231   -2.781537    0.718385
C     -2.979591    0.740240   -1.081239
C     -5.536053   -3.129832   -0.389133
C     -5.793687   -0.345808   -0.781681
C     -4.532470   -2.263786   -0.007333
C     -4.645378   -0.910344   -0.197028
C     -2.423635   -1.838213    1.180896
C      2.506908   -1.930934    2.816380
C     -6.338150    2.522877    0.831947
C     -5.250542    1.866036    0.148817
C     -3.594460    0.096732    0.116922
O     -2.032612   -5.880495    2.020481
O     -5.499340   -4.489158   -0.234731
O      1.890258   -2.300770    3.827503
O      3.909846   -2.158060    2.852530
O     -7.529675    2.309724    0.479881
O     -6.190052    3.416234    1.895766
O     -5.792883    1.021940   -0.901946
O     -2.587716   -0.505406    0.877457
H      8.550014    2.379337   -3.289322
H      8.974406    4.137667   -3.149476
H      9.847346    2.867110   -2.144810
H      7.939885    5.502592   -1.127500
H      6.540897    4.692712   -0.400265
H      6.625582    5.012900   -2.216038
H     -2.910624   -0.871896   -4.134167
H     -3.910858    0.593029   -3.762471
H     -2.296217   -2.292059   -1.874752
H     -1.166085   -1.506757   -2.977582
H     -0.970819   -1.177213   -1.236214
H      6.732533    0.145385    1.924881
H      7.776636   -0.928437    0.960424
H      6.152044   -1.514873    1.393799
H     -7.385772    3.838506    3.594418
H     -7.226783    5.147724    2.396635
H     -8.212421    3.663728    1.984630
H      8.638739    0.738266   -0.034184
H      8.929910    1.087960   -1.748642
H      4.489022   -0.151777    1.848658
H      3.437432    1.009806    1.043236
H      6.737380    2.405122    0.028654
H      7.561563   -0.929477   -1.552980
H      6.549909    0.354615   -2.257466
H      4.453011    0.585448   -1.188905
H      2.377838   -0.545398   -0.351111
H      3.362492   -1.918897    0.145477
H      0.430368   -0.556030    0.498514
H     -0.037686   -1.544108    3.436831
H     -0.941881   -0.343835    2.537411
H     -7.480436   -3.205567   -1.289300
H     -7.675170   -0.794882   -1.613187
H     -4.524239    1.540797   -2.333342
H     -3.016957    2.505592   -2.275956
H     -3.572517    3.257591    0.017134
H     -4.893471    3.589510   -1.154808
H     -0.344154   -3.943850    2.819282
H     -3.904077   -4.841144    0.663695
H     -4.890422    0.475580    1.751160
H     -3.586677    1.758456    1.500002
H     -1.959287    1.120095   -0.709122
H     -2.421471   -6.370189    2.789335
H     -6.247513   -5.099280   -0.557862
H      4.306601   -2.766952    3.562854
