99

C     -8.220493    4.091705    1.509886
C     -6.294633    5.055770    0.095511
C      8.850842    2.156197   -2.758911
C      8.878086    4.664202   -3.286060
C     -5.109861    1.496873    1.030503
C      6.367562    1.660701    2.161999
C     -6.412112    2.751959   -1.527830
C      7.568061    2.731509   -0.325060
C     -2.331856    1.477525    0.560011
C      4.381038    0.458427   -0.863794
C     -7.322854    2.905594   -0.392943
C      7.917901    3.831716   -1.229078
C     -5.498717    1.573884   -1.480844
C      6.049150    2.728460   -0.132516
C     -3.273459    1.524118   -0.550353
C      4.996977    0.592649    0.428833
C     -1.313603    0.416530    0.566577
C      2.911119    0.640697   -0.901462
C     -5.805969   -5.846730    0.476305
C      2.282056   -5.900704    0.677927
C     -4.506629   -6.254935    0.453124
C      1.457359   -5.462307    1.690415
C     -2.921714   -1.578695    0.537143
C     -5.078041   -3.586587    0.541789
C      2.080799   -3.750451   -0.377988
C      1.280904   -1.220414   -0.527151
C     -7.269954    3.985016    0.366915
C      8.523917    3.551453   -2.376797
C     -4.570062    1.532406   -0.341869
C      5.760656    1.603392    0.782337
C     -1.710153   -0.969725    0.560785
C      2.129605   -0.286478   -0.043342
C     -6.096935   -4.496602    0.521118
C      2.598290   -5.054553   -0.357480
C     -3.732785   -3.973814    0.519049
C      1.261984   -3.306744    0.622352
C     -3.459320   -5.305290    0.474574
C      0.950474   -4.157041    1.652766
C     -2.701675   -2.958440    0.540398
C     -0.762418   -2.006097    0.578051
C      2.033233   -0.273228    1.406047
C      0.714642   -1.927544    0.604678
O     -7.437355   -4.125526    0.543088
O      3.428462   -5.523752   -1.359050
O     -2.185115   -5.837904    0.445558
O      0.130379   -3.743847    2.674809
O      2.677152    0.478635    2.215775
O     -1.429778   -3.132933    0.564581
O      1.096223   -1.234898    1.775638
H     -7.693788    4.061647    2.487839
H     -8.748916    5.053633    1.448604
H     -8.977839    3.297107    1.492941
H     -6.430140    5.423185   -0.932970
H     -5.244958    4.717619    0.248593
H     -6.424853    5.885502    0.846178
H      9.489354    1.655505   -1.982169
H      9.445734    2.169238   -3.676715
H      7.936730    1.555540   -2.968197
H      9.989104    4.711883   -3.355735
H      8.484193    5.636704   -2.944362
H      8.468699    4.476364   -4.292037
H     -6.200503    1.260142    1.049852
H     -4.955214    2.487788    1.554568
H     -4.647941    0.755673    1.703430
H      5.588669    1.201532    2.829585
H      6.503898    2.705504    2.439347
H      7.264585    1.029605    2.243388
H     -5.860087    3.690517   -1.794003
H     -7.071422    2.584381   -2.433829
H      7.903197    1.740825   -0.692170
H      7.996380    2.839097    0.699640
H     -1.752836    2.460531    0.501764
H     -2.840662    1.576935    1.558333
H      4.554212   -0.642348   -1.175621
H      4.903749    1.000482   -1.694127
H     -8.039821    2.099459   -0.209090
H      7.677288    4.845504   -0.947288
H     -4.910616    1.596342   -2.436047
H     -6.091938    0.634716   -1.538027
H      5.526787    2.721050   -1.074861
H      5.740346    3.669015    0.393842
H     -2.894636    1.552179   -1.569125
H      4.890523   -0.199206    1.197734
H     -0.585016    0.620154   -0.273464
H     -0.696795    0.576786    1.505122
H      2.605971    1.691756   -0.617471
H      2.604127    0.513426   -1.984804
H     -6.644258   -6.565863    0.460830
H      2.667462   -6.927306    0.728354
H     -4.266115   -7.296911    0.418224
H      1.212970   -6.133162    2.500093
H     -3.870346   -1.108913    0.516434
H     -5.304293   -2.538857    0.577049
H      2.366432   -3.127677   -1.224128
H      1.106119   -1.357953   -1.569613
H     -7.841563   -4.041323    1.488601
H      3.657215   -4.883177   -2.125375
H     -1.376977   -5.293007    0.446694
H     -0.093588   -4.375801    3.428177
