29

C     -4.135631   -0.312664   -0.264784
C      4.403691   -0.057108    0.436971
C     -2.730288   -0.821302   -0.218020
C      2.107402   -1.553492   -0.009864
C      0.760169    1.889215    0.368601
C      0.744341    0.438929    0.149843
C     -1.700728    0.317976   -0.107474
C      1.990058   -0.187575    0.179838
C      0.942015   -2.244934   -0.226045
C     -0.358421   -0.331796   -0.071737
O     -0.439669    2.534083    0.336843
O     -1.863965    1.046869   -1.293483
O      1.020741   -3.499258   -0.401925
O      3.144838    0.543319    0.401734
O     -0.211972   -1.622699   -0.247513
H     -4.459855   -0.085445   -1.300372
H     -4.795218   -1.169257    0.064969
H     -4.311016    0.535674    0.436091
H      4.511907   -0.711165    1.326647
H      5.206841    0.703767    0.382065
H      4.516863   -0.716223   -0.447049
H     -2.511983   -1.320665   -1.184618
H     -2.555933   -1.572616    0.578996
H      3.056967   -2.070108    0.005958
H      1.408882    2.337569   -0.439038
H      1.282201    2.171110    1.322872
H     -1.957267    0.860759    0.796774
H     -0.278326    3.494624    0.440416
H     -2.786643    1.402413   -1.288263
