60

C     -7.834468    0.568991    0.948273
C     -0.656955    2.280384    2.102019
C     -2.505711   -2.701344   -0.731811
C     -2.637581   -0.910213   -2.401061
C     -6.361472   -0.886132   -0.420935
C     -5.138055   -1.313320   -0.863497
C      0.779029    0.783157    0.697950
C     -0.223840   -0.844865   -0.698346
C      6.255090   -1.491990    1.379753
C     -6.492779    0.131686    0.490703
C     -0.488998    1.180805    1.116082
C      0.928097   -0.237751   -0.217284
C     -3.946842   -0.725495   -0.402000
C     -1.513382   -0.481425   -0.309514
C      5.537347   -0.880454    0.171420
C     -1.619725    0.531795    0.596713
C     -4.100029    0.279500    0.499365
C     -5.339628    0.720330    0.954886
C      5.949468    0.544542    0.086647
C     -2.933283    0.969885    1.053439
C      5.170659    1.344829   -0.924581
C      4.083755    0.451309   -1.476214
C      3.378772   -0.161688   -0.274525
C     -2.663420   -1.184564   -0.876048
O      7.625204   -1.307463    1.304779
O     -5.420148    1.753860    1.877898
O      5.925109    1.215335    1.292353
O     -3.048736    1.896094    1.882817
O      4.513566    2.421779   -0.297887
O      4.566322   -0.491479   -2.352566
O      2.153822   -0.649625   -0.645931
O      4.203508   -1.108871    0.330347
H     -7.822643    0.784242    2.036187
H     -8.136893    1.476848    0.404164
H     -8.565530   -0.239976    0.692464
H     -1.098846    1.930557    3.055361
H     -1.173126    3.165655    1.679141
H      0.372557    2.662496    2.342467
H     -1.827470   -3.018956   -1.534937
H     -2.076601   -2.922346    0.253195
H     -3.494182   -3.142040   -0.853264
H     -1.610781   -0.635522   -2.719662
H     -3.031560   -1.801979   -2.936281
H     -3.302476   -0.072887   -2.657842
H     -7.271383   -1.352646   -0.789026
H     -5.101059   -2.114803   -1.577949
H      1.595893    1.325953    1.139002
H     -0.150573   -1.648196   -1.416319
H      6.068762   -2.578757    1.456385
H      5.881578   -1.040612    2.324495
H      5.925898   -1.446960   -0.708794
H      7.021955    0.560080   -0.268977
H      5.791436    1.785748   -1.716833
H      3.356789    1.080930   -2.006171
H      3.284663    0.655587    0.457886
H      7.894767   -1.357034    0.354192
H     -6.280881    2.109205    2.237911
H      6.603287    1.933225    1.261289
H      4.461334    2.311475    0.675857
H      4.540389   -0.106890   -3.265577
