79

C     -5.571317    2.098410    0.307195
C     11.129530   -2.330629    2.526669
C     12.032545   -2.987987    1.719871
C     -3.001358    0.068830   -1.270318
C     -9.731578   -3.081253   -0.263565
C     10.258600   -1.386901    2.026540
C     -4.280358   -0.387846   -0.658490
C     -8.241711   -2.898073   -0.204236
C     12.025121   -2.659326    0.392286
C     -0.047215    1.828087    0.132121
C      1.346459    2.091410    0.573323
C     -2.773692    1.548447   -1.323633
C    -10.403764   -2.643171    1.044263
C      4.301665    0.485346   -1.103764
C      8.195178    1.509806   -1.121680
C     10.252772   -1.052087    0.666495
C     -4.503304   -0.017772    0.764884
C     -7.808127   -1.783099    0.706652
C      7.633072    1.523896    0.275773
C     11.142381   -1.697338   -0.137865
C      3.367419    1.546380   -0.661508
C     -0.267187    1.955764   -1.312625
C      6.189670    1.177781    0.265744
C     -5.838758   -0.593877    1.191995
C      9.293265   -0.032496    0.210721
C     -8.895318   -0.748445    0.735315
N     -4.516645    1.400498    0.974980
N      2.360288    1.248781    0.044679
N      5.652736    0.855177   -0.828586
N     -6.547624   -1.228639    0.343231
N      8.452566    0.576792    0.972718
N     -1.488447    1.841105   -1.992027
N    -10.189603   -1.211759    1.121031
O     11.211082   -1.437570   -1.479943
O      3.613415    2.855390   -1.033213
O      0.775542    2.198731   -2.012811
O      5.470643    1.212800    1.434453
O     -6.291843   -0.438494    2.483534
O     -8.671041    0.455468    0.435752
O     -1.545480    1.999624   -3.330121
O    -11.119467   -0.320626    1.525147
O      9.117294    0.443341   -1.053673
H     -5.126371    2.966951   -0.236668
H     -6.157014    1.517582   -0.408267
H     -6.291332    2.557663    1.044487
H     11.144192   -2.599061    3.575794
H     12.721560   -3.730906    2.100046
H     -3.011335   -0.302191   -2.332842
H     -2.154555   -0.408338   -0.711026
H    -10.139581   -2.369748   -1.024399
H    -10.038965   -4.089259   -0.552115
H      9.546103   -0.870165    2.676432
H     -5.137765    0.012376   -1.288449
H     -4.306941   -1.504618   -0.767809
H     -7.853224   -2.654793   -1.237177
H     -7.760897   -3.882311    0.041995
H     12.728606   -3.160062   -0.280772
H     -0.735339    2.451295    0.734681
H     -0.288563    0.765316    0.426187
H      1.593880    3.193111    0.492547
H      1.359986    1.929923    1.694182
H     -3.624378    2.018008   -1.847924
H     -2.744179    2.024310   -0.299420
H     -9.860713   -3.182611    1.866654
H    -11.465761   -2.914645    0.980493
H      4.026459   -0.491815   -0.597888
H      4.127192    0.316388   -2.189080
H      7.440799    1.376287   -1.906918
H      8.795468    2.436669   -1.248927
H     -3.687817   -0.438388    1.398720
H     -7.772715   -2.189596    1.741268
H      7.804647    2.515280    0.791277
H     -4.512577    1.607347    2.007736
H     10.648083   -0.791406   -1.953126
H      3.376010    3.602637   -0.377532
H      4.595606    0.729304    1.599083
H     -7.304730   -0.408819    2.682855
H     -0.692818    1.720298   -3.760501
H    -11.328422    0.263516    0.740301
