47

C      2.866294   -2.738438   -1.340369
C     -2.740149   -2.486224   -1.738684
C      3.972542    0.675230    1.923815
C      4.758004    1.616167   -0.232336
C     -4.510805    1.560678   -0.405175
C     -3.757906    0.871540    1.789430
C     -0.635884   -0.030118    1.363283
C      0.098228    1.282916   -0.543465
C      2.715362   -1.357763   -0.800288
C     -2.501374   -1.271787   -0.907838
C      1.426777    0.637794   -0.369171
C      1.562046   -0.726238   -0.907274
C      3.840705   -0.683515   -0.145133
C     -3.594896   -0.640884   -0.172134
C     -1.301722   -0.764262   -0.830765
C      3.734849    0.671672    0.415039
C     -3.445398    0.722546    0.321104
C     -1.053201    0.437706   -0.012015
N      2.414738    1.204282    0.196638
N     -2.193240    1.289840   -0.003573
O      4.929189   -1.296731   -0.066072
O     -4.670123   -1.265137    0.041461
S      0.108216   -1.471432   -1.682821
H      3.902682   -2.828647   -1.738759
H      2.159118   -2.898211   -2.174502
H      2.755532   -3.463364   -0.519183
H     -3.827264   -2.727776   -1.708843
H     -2.141341   -3.351020   -1.377636
H     -2.487893   -2.220307   -2.780005
H      3.090954    1.024604    2.478170
H      4.198280   -0.346616    2.295815
H      4.813058    1.349433    2.186230
H      5.769467    1.434422    0.173316
H      4.383918    2.647538    0.020683
H      4.675897    1.477030   -1.316568
H     -5.494650    1.078899   -0.245664
H     -4.294758    1.594930   -1.488346
H     -4.553012    2.564138    0.065711
H     -2.882915    0.725199    2.437466
H     -4.062137    1.948999    1.939585
H     -4.628458    0.274687    2.111830
H      0.409470   -0.442327    1.245342
H     -0.515671    0.810542    2.080036
H     -1.232355   -0.868109    1.745162
H     -0.086422    1.481824   -1.618321
H      0.068587    2.238267    0.017738
H     -2.042341    2.258025    0.277086
