41

C     -1.025177   -2.707249   -0.925646
C      3.567056    2.262343   -2.030006
C     -3.874371    2.477044    0.069277
C     -2.747352    2.770516   -0.660485
C     -4.010856    1.233299    0.635678
C     -1.731942    1.839797   -0.845706
C      2.467447   -1.154709    1.584756
C      3.620569    0.469270    0.320549
C      0.221352   -1.974281    1.021306
C      0.233957   -0.188248   -1.263488
C      1.368278   -1.096857    0.719179
C      3.585235   -0.386809    1.398981
C     -3.031020    0.288178    0.475971
C      1.438547   -0.230809   -0.346805
C     -1.885270    0.601787   -0.273273
C      2.549860    0.557977   -0.564252
C     -3.147116   -1.038410    1.097374
C     -1.006755   -1.689552    0.226371
N     -2.214616   -1.879163    0.952165
N     -0.911481   -0.388229   -0.436914
O      4.660393   -0.483818    2.297768
O     -4.293742   -1.317320    1.829281
O      2.529049    1.391956   -1.654587
H     -1.664859   -2.298252   -1.732370
H      0.001565   -2.951631   -1.257050
H     -1.531161   -3.617434   -0.542116
H      3.370203    3.233316   -1.487724
H      3.429454    2.488158   -3.111413
H      4.551816    1.852182   -1.795567
H     -4.673240    3.203803    0.216711
H     -2.640388    3.748106   -1.105046
H     -4.875736    0.950581    1.218554
H     -0.851869    2.086814   -1.416928
H      2.456385   -1.824751    2.440772
H      4.483882    1.070193    0.166894
H      0.538221   -3.044708    0.967155
H     -0.002846   -1.818632    2.118363
H      0.401264   -1.062814   -1.962441
H      0.328709    0.688517   -1.853693
H      4.693843    0.125064    3.126051
H     -4.377286   -2.185224    2.382355
