31

C      2.516867    1.102809    0.724234
C     -3.517020   -0.903906    0.472422
C     -0.186994    2.768461    0.691427
C      2.696335   -1.264665   -0.559363
C     -1.529922   -2.653557   -0.711958
C      1.631712    1.090526   -0.532774
C     -2.165726   -0.397641    0.210887
C     -0.624522    1.388885    0.297235
C      2.322186   -0.038083   -1.329020
C     -1.237911   -1.230445   -0.341379
C     -1.893805    0.938721    0.547392
C      0.288168    0.490312   -0.271504
O      2.550962    0.089186   -2.485949
O     -2.735287    1.702162    1.038651
O     -0.025353   -0.731806   -0.557652
H      3.349262    0.398629    0.684368
H      2.995387    2.125668    0.822393
H      1.960858    0.908317    1.646475
H     -4.022838   -1.262450   -0.425991
H     -3.370143   -1.802148    1.148289
H     -4.179389   -0.216884    1.063210
H     -0.999965    3.478339    0.469031
H      0.708577    3.061831    0.158371
H     -0.068382    2.763854    1.797299
H      2.255961   -1.262751    0.477990
H      2.429840   -2.207847   -1.030748
H      3.813143   -1.296651   -0.376676
H     -2.568358   -2.885684   -0.735729
H     -0.968594   -3.308978    0.008927
H     -1.104463   -2.796309   -1.747314
H      1.679413    1.952108   -1.152544
