28

C     -1.388378    0.786408   -1.904286
C      0.253264   -2.156545    0.761814
C     -3.526817   -0.026907    0.204577
C      0.939941    1.273700   -0.446093
C      2.835607    0.552215    0.804682
C     -1.076255   -0.150144   -0.751363
C      0.909774   -0.865907    0.510738
C     -2.047109    0.082401    0.362413
C      2.216273    1.524861    0.060145
C      0.274211    0.092194   -0.235035
C      2.195517   -0.634936    1.033415
O     -1.616109    0.377777    1.455930
O      2.854297    2.740989   -0.180845
O      2.769117   -1.657539    1.780440
H     -2.145986    1.543009   -1.682422
H     -1.819275    0.107790   -2.713431
H     -0.463854    1.172174   -2.377795
H     -0.606804   -2.120700    1.457932
H     -0.003418   -2.584103   -0.219718
H      0.989301   -2.870685    1.246273
H     -4.033411   -0.168967    1.170708
H     -3.827233   -0.867049   -0.451033
H     -3.912518    0.962844   -0.194618
H      0.510725    2.102480   -1.010987
H      3.835049    0.711325    1.216761
H     -1.217894   -1.210853   -1.054370
H      3.415530    2.799039   -1.002343
H      3.686454   -1.514869    2.158510
