42

C     -4.158188    0.710209   -2.118910
C     -3.549397    1.755908    0.555112
C     -1.304218   -2.497440    0.237196
C      2.868533   -1.219173   -0.640259
C      3.840574    0.855170   -0.115115
C      3.902572   -1.487976   -1.513044
C      4.884569    0.584502   -0.995885
C     -2.411657   -0.953183   -1.331007
C      1.975808    0.752102    2.253414
C     -3.043757    0.205075   -1.223599
C     -2.458952    0.930508   -0.077778
C      2.811515   -0.043484    0.079136
C      4.933236   -0.593659   -1.710916
C      1.715917    0.236810    1.001276
C     -0.631556    0.231836    1.446664
C     -1.905309   -0.124816    0.805970
C      0.405217   -0.031654    0.577951
C     -0.325254    0.742207    2.677057
C     -1.377587   -1.102470   -0.272033
N      0.942432    0.996442    3.072540
O      5.975330   -0.875431   -2.596783
O     -1.337050    1.020307    3.577325
O     -0.143077   -0.531402   -0.580411
H     -4.310905   -0.001048   -2.928666
H     -3.887284    1.705353   -2.509079
H     -5.102255    0.815949   -1.544760
H     -3.759286    2.597506   -0.140689
H     -3.284465    2.184538    1.520561
H     -4.478183    1.145472    0.597036
H     -0.325752   -2.941047   -0.100409
H     -1.432023   -2.608206    1.324271
H     -2.083337   -3.126059   -0.283378
H      2.060821   -1.935697   -0.494251
H      3.817788    1.788269    0.440254
H      3.951956   -2.417177   -2.084611
H      5.684468    1.300095   -1.137012
H     -2.621824   -1.693934   -2.091661
H      3.005644    0.929997    2.502486
H     -1.610755    1.574167   -0.403691
H     -2.622942   -0.619524    1.459013
H      6.710749   -0.223611   -2.730068
H     -1.322118    1.964567    3.988361
