52

C      6.805684    1.158464   -0.889352
C      1.974776    2.298404    0.285003
C      5.762854    0.084287   -0.690099
C     -4.158450    3.346394   -1.087644
C     -3.516195    2.521283   -1.982302
C     -0.995193   -4.973040   -0.281801
C      4.377379    0.782086   -0.504960
C     -4.159931    3.063878    0.259829
C     -0.297315   -3.767076   -0.241323
C     -2.877190    1.408872   -1.497669
C     -2.340609   -4.934030   -0.100646
C      1.157812   -1.324069   -0.131415
C      1.264430    1.008320    0.203113
C     -0.946235   -2.571663   -0.025284
C     -3.515402    1.938426    0.769129
C      1.934235   -0.137931   -0.073349
C     -0.201041   -1.309099    0.082168
C     -2.878958    1.119293   -0.119987
C      3.354013   -0.216844   -0.311388
C     -3.038885   -3.728944    0.122168
C     -2.336206   -2.525080    0.159885
C     -0.843661   -0.133462    0.360426
C     -0.119649    1.052580    0.426353
C     -3.018439   -1.275527    0.325782
C     -3.318706    1.396803    2.098406
C     -2.299028   -0.016485    0.639471
O      3.805280   -1.439754   -0.364469
O     -4.377171   -3.757967    0.297784
O     -0.815702    2.190099    0.709909
O     -4.256573   -1.185137    0.212222
O     -3.796966    1.939346    3.150974
O     -2.564933    0.263428    1.978553
H      6.391364    1.886236   -1.647758
H      7.764771    0.749513   -1.238272
H      6.912424    1.770731    0.042002
H      2.617439    2.374514    1.163724
H      2.563408    2.427969   -0.642710
H      1.245565    3.153027    0.242342
H      5.749662   -0.596847   -1.536879
H      5.943402   -0.470039    0.234932
H     -4.662083    4.221946   -1.471266
H     -3.510567    2.741113   -3.061628
H     -0.466972   -5.903124   -0.453143
H      4.510827    1.568982    0.219984
H      4.240980    1.251034   -1.524709
H     -4.664108    3.706280    0.988707
H      0.770331   -3.792134   -0.384128
H     -2.366512    0.748389   -2.187084
H     -2.948026   -5.849708   -0.120464
H      1.699303   -2.210630   -0.353034
H     -5.093429   -3.138270    0.468940
H     -0.461808    3.085162    0.805626
