94

C     -6.663247   -2.615841    4.326002
C      9.937988   -2.536236    3.109158
C      9.678963   -0.052460    2.679914
C     -4.446127    0.694403   -4.015745
C     -5.893351    1.929106   -2.549365
C      5.948115   -2.403142   -1.232262
C     -5.249840   -2.752752    3.844337
C      8.097132   -3.103719    0.928113
C      3.985236   -0.760825   -0.000192
C      8.489074   -1.746360    1.336770
C      6.622945   -3.395479    1.063487
C      4.858713   -1.708360    0.808797
C      2.546748   -1.158777    0.161801
C      0.889302   -0.848738   -1.603291
C     -0.062756   -0.324296   -2.541870
C     -4.684137    4.635333    0.220602
C     -5.343434    3.570950    0.853555
C     -5.440320   -1.004242   -1.221034
C     -6.104154   -0.745022    0.075088
C      0.045859    2.045949   -3.255482
C     -1.442339    3.723359   -2.390311
C      1.609357    1.120610   -0.352422
C     -3.792400   -0.261935    0.686362
C      9.321625   -1.446555    2.320831
C     -4.875382    0.862501   -2.741002
C      5.776559   -2.477258    0.242693
C      1.612031   -0.277714   -0.680317
C     -0.545076    1.047207   -2.466844
C     -0.380398    3.340159   -3.223588
C     -2.043197    2.777384   -1.610458
C     -4.390160   -0.007331   -1.651192
C     -3.632124    4.402925   -0.637823
C     -4.954870    2.281251    0.626725
C     -3.249209    3.104815   -0.858172
C     -3.911939    2.037013   -0.230361
C     -1.585749    1.452775   -1.656229
C     -5.374542   -0.779419    2.439677
C     -5.231136   -0.096015    1.104201
C     -3.613370    0.619888   -0.547883
O      2.908650    1.656626   -0.554267
O      0.236387    4.320903   -4.025919
O     -3.027075    5.489799   -1.217529
O     -5.742702   -0.121274    3.446753
O     -5.112679   -2.122009    2.592194
O     -5.597705    1.245337    1.250135
O     -2.198945    0.536311   -0.849616
H     -6.982012   -3.559144    4.812100
H     -7.320382   -2.321190    3.502237
H     -6.720891   -1.818993    5.099781
H     10.830346   -2.975253    2.581482
H     10.366324   -2.156128    4.069644
H      9.203276   -3.292605    3.389125
H     10.720662    0.219391    2.343313
H      8.939834    0.658366    2.251445
H      9.626825    0.027747    3.791862
H     -3.711186   -0.070553   -4.178717
H     -4.823512    1.288566   -4.806759
H     -5.460941    2.933387   -2.565413
H     -6.616992    1.930530   -3.420887
H     -6.521753    1.814899   -1.662870
H      6.326590   -1.382225   -1.500282
H      4.964729   -2.535318   -1.729243
H      6.643265   -3.143458   -1.626338
H     -4.567652   -2.264954    4.572306
H     -4.946876   -3.821674    3.745554
H      8.627571   -3.838415    1.551934
H      8.420792   -3.324400   -0.127278
H      4.211984    0.234890    0.496227
H      4.336262   -0.678114   -1.031703
H      8.066291   -0.898224    0.793827
H      6.476969   -4.436649    0.721752
H      6.345442   -3.260710    2.119197
H      4.705789   -1.738034    1.876071
H      2.297713   -0.974835    1.249286
H      2.353921   -2.218452   -0.015591
H      1.050531   -1.999565   -1.674897
H      0.355943   -0.447454   -3.613429
H     -0.972782   -1.035105   -2.630424
H     -5.034103    5.622073    0.436387
H     -6.173766    3.795290    1.533816
H     -6.253014   -0.946791   -2.009810
H     -5.065475   -2.053061   -1.288699
H     -6.442885   -1.726530    0.500217
H     -7.069127   -0.156065   -0.059094
H      0.858717    1.731511   -3.891999
H     -1.756553    4.734872   -2.390607
H      0.847638    1.797962   -0.647577
H      1.553523    1.154841    0.812064
H     -3.686675   -1.310419    0.333041
H     -3.066302   -0.011135    1.469722
H     -3.615972   -0.687563   -2.174891
H      3.029024    2.496996   -0.058450
H      0.999610    4.053655   -4.627196
H     -3.327041    6.439196   -1.101263
