93

C     -4.663300   -0.544065    6.210544
C      8.794002   -1.300133   -0.231405
C      8.906317   -0.318712    2.126886
C     -5.340040   -0.724288   -2.141941
C     -4.380883   -2.832846   -2.673203
C      5.339879   -0.516474   -1.402884
C     -3.495686   -1.081481    5.385680
C      6.471435   -2.738175    0.479985
C      3.861811    1.192166    0.301508
C      7.147972   -1.866535    1.471545
C      5.021381   -2.403439    0.317159
C      4.125769   -0.194463    0.658983
C      2.449425    1.576444    0.199374
C      1.197782    1.729341   -1.807101
C      0.381859    1.372607   -2.956316
C     -5.972628    2.702861    0.304730
C     -5.826118    1.529188    0.987658
C     -2.572747   -2.339894   -0.445632
C     -3.252118   -2.463459    0.870870
C     -0.993600    3.351935   -3.647441
C     -3.099195    3.840819   -2.634621
C     -2.267855   -0.243443    0.912914
C      8.232861   -1.198328    1.125702
C     -4.279323   -1.445732   -1.980893
C      4.821770   -1.024192   -0.128334
C      1.636692    0.915986   -0.850033
C     -0.855018    2.241168   -2.858133
C     -2.120470    4.173239   -3.549083
C     -2.953595    2.725007   -1.848187
C     -3.072347   -1.132473   -1.264616
C     -5.061537    3.112616   -0.685301
C     -4.780106    0.685766    0.739948
C     -4.008781    2.281464   -0.943711
C     -3.861586    1.068294   -0.242009
C     -1.830184    1.907048   -1.944313
C      1.315362   -0.477203   -0.830552
C     -2.983062   -1.283722    2.982297
C     -3.304219   -1.104488    1.539720
C     -2.791747    0.091303   -0.527532
O     -2.165340    5.270911   -4.388447
O     -5.278860    4.306145   -1.324381
O      1.712818   -1.219141    0.133616
O      0.592266   -1.167888   -1.770516
O     -1.887412   -1.814339    3.333625
O     -3.835515   -0.894021    4.008444
O     -4.564468   -0.501393    1.380431
O     -1.695390    0.799952   -1.140636
H     -4.383303   -0.378713    7.270975
H     -5.503363   -1.268957    6.216085
H     -5.055543    0.405929    5.806657
H      8.999250   -2.360260   -0.515277
H      8.157008   -0.765636   -0.935231
H      9.799350   -0.805511   -0.273770
H      9.175277    0.652612    1.616733
H      8.249020   -0.102750    2.991814
H      9.878980   -0.765729    2.425205
H     -6.183901   -1.176833   -2.745702
H     -5.592010    0.262976   -1.815759
H     -4.906337   -2.688818   -3.646038
H     -3.398932   -3.224085   -2.903688
H     -5.016643   -3.473775   -2.048134
H      6.033418    0.345379   -1.223355
H      5.907662   -1.268762   -1.978801
H      4.488754   -0.198885   -2.065132
H     -2.560360   -0.551193    5.654574
H     -3.428588   -2.185306    5.603757
H      6.591067   -3.812019    0.772091
H      7.002236   -2.657260   -0.503955
H      4.334763    1.420471   -0.715136
H      4.417670    1.850375    1.046258
H      6.709013   -1.813876    2.467825
H      4.496794   -2.611740    1.285152
H      4.612229   -3.071965   -0.472209
H      3.770231   -0.591112    1.622033
H      1.969492    1.359422    1.212595
H      2.361396    2.710320    0.152165
H      1.475709    2.814581   -1.739711
H      0.055653    0.349365   -3.002404
H      0.915415    1.648837   -3.931202
H     -6.829068    3.360082    0.528321
H     -6.542350    1.220075    1.761407
H     -2.661246   -3.287057   -1.038941
H     -1.484891   -2.197354   -0.322422
H     -4.259342   -2.884342    0.824793
H     -2.640868   -3.154478    1.501836
H     -0.194159    3.569475   -4.353456
H     -3.932213    4.499328   -2.615163
H     -1.251889   -0.611934    0.890424
H     -2.238478    0.740978    1.450139
H     -2.256647   -1.162659   -2.135117
H     -2.613466    5.097562   -5.301679
H     -6.082637    4.858884   -1.070769
H      0.799580   -2.139578   -2.040621
