93

C     -8.342413    4.942804   -1.251797
C      7.269459    1.305950    2.495152
C      9.632600    2.200992    2.130634
C     -5.569381   -2.942318    0.205250
C     -3.174367   -2.837279    0.299825
C      6.865485   -3.513353   -1.406575
C     -8.307536    4.053218   -0.005380
C      7.336782    0.116159   -0.097455
C      4.367564   -2.453656   -1.695159
C      8.481742    0.888827    0.444871
C      7.793206   -1.302224   -0.439308
C      5.424905   -1.586422   -1.135882
C      3.753605   -1.816406   -2.881670
C      2.752780   -0.136991   -1.382531
C      2.039141    1.036944   -0.926638
C     -3.851800   -0.760812    4.120331
C     -5.087819   -0.591693    3.474155
C     -5.879519   -0.697484   -1.501434
C     -6.976012   -0.034224   -0.763456
C     -0.446020    0.843174   -0.654451
C     -0.253869   -0.067921    1.891630
C     -5.092669    1.327663   -0.042886
C      8.463598    1.438848    1.631991
C     -4.505453   -2.245240   -0.088480
C      6.664246   -2.105467   -0.990982
C      2.965712   -0.555160   -2.595821
C      0.806361    0.685522   -0.118560
C     -1.504030    0.092478    1.350405
C     -4.598192   -0.939767   -0.790158
C     -2.652763   -0.582330    3.428088
C      0.907139    0.229607    1.155855
C     -5.081668   -0.249142    2.149573
C     -1.609701    0.566243    0.028188
C     -2.711443   -0.236924    2.097298
C     -3.897859   -0.073896    1.456032
C      2.413582    0.192744   -3.722009
C     -7.288741    1.945787    0.710652
C     -6.444946    0.797101    0.390716
C     -4.046764    0.227072   -0.006298
O     -1.495108   -0.764850    4.130802
O      2.114309    0.034190    1.791776
O      1.740220    1.206512   -3.581449
O      2.678629   -0.289999   -5.008604
O     -7.806212    2.032674    1.854873
O     -7.516716    2.921364   -0.222656
O     -6.302024   -0.063522    1.477235
O     -2.847875    0.735866   -0.518997
H     -7.382390    5.493954   -1.348070
H     -9.193767    5.637735   -1.127455
H     -8.538597    4.297705   -2.134390
H      7.298749    2.020502    3.353896
H      6.324298    1.549547    1.937935
H      7.156422    0.275007    2.881813
H     10.409601    2.315364    1.350424
H     10.090395    1.606898    2.956483
H      9.314701    3.213081    2.498475
H     -5.494211   -3.894997    0.701374
H     -6.547475   -2.577598   -0.044139
H     -3.152135   -2.980447    1.378307
H     -2.332090   -2.246681   -0.098041
H     -3.058306   -3.845713   -0.209222
H      7.940447   -3.793716   -1.200455
H      6.261577   -4.186484   -0.783050
H      6.746585   -3.669587   -2.503511
H     -7.999551    4.684206    0.837146
H     -9.353195    3.728565    0.179998
H      6.523037    0.009494    0.623381
H      6.920351    0.576994   -1.018679
H      3.583044   -2.729667   -0.929185
H      4.790989   -3.458439   -1.987739
H      9.362012    0.994242   -0.175127
H      8.279670   -1.782653    0.419078
H      8.535962   -1.172565   -1.265680
H      5.262558   -0.581359   -0.861397
H      4.461894   -1.650293   -3.721023
H      2.985393   -2.517600   -3.307357
H      3.143250   -0.814085   -0.586446
H      2.694835    1.556507   -0.120198
H      1.804637    1.839331   -1.594674
H     -3.825829   -1.031720    5.169479
H     -5.996283   -0.737280    4.044096
H     -5.668356   -0.102483   -2.434569
H     -6.260640   -1.696335   -1.840661
H     -7.453929    0.732173   -1.453967
H     -7.828744   -0.664489   -0.460128
H     -0.534080    1.207170   -1.675721
H     -0.134444   -0.431288    2.887534
H     -4.787129    2.066941    0.730097
H     -5.116633    1.798346   -1.025616
H     -3.829640   -1.054891   -1.647808
H     -1.415628   -1.012681    5.084260
H      2.216040   -0.302476    2.725698
H      2.616437    0.357106   -5.787006
