27

C      2.051672    1.284444    0.734807
C     -1.070215    0.370453   -1.613893
C      0.808114    1.273822    1.135913
C     -0.840152   -1.053193   -1.142556
C      1.545562   -0.708144   -0.814984
C     -0.953440   -0.214192    1.835589
C      2.444225    0.336946   -0.281015
C     -1.162822    1.115026   -0.278409
C      0.183056   -1.942954    0.858392
C      0.254442   -0.826197   -0.091681
C     -0.222094    0.363864    0.625471
O      3.611149    0.387711   -0.749779
O     -2.470946    0.949579    0.178331
O      0.503355   -3.129585    0.592199
O     -0.288687   -1.459749    2.065868
H      2.762623    1.972313    1.143101
H     -0.162196    0.702815   -2.120430
H     -1.992641    0.476161   -2.201906
H      0.520960    1.987694    1.898397
H     -0.478203   -1.693785   -1.954611
H     -1.754040   -1.468512   -0.680506
H      1.448485   -0.531268   -1.906062
H      2.094999   -1.683084   -0.705363
H     -0.810320    0.387664    2.737177
H     -2.026950   -0.338707    1.658514
H     -0.882692    2.163254   -0.409911
H     -3.113243    1.277624   -0.512652
