71

C     -1.892221   -0.837746   -4.430847
C      2.827822    5.862232   -1.798790
C      0.988973   -0.213464    4.901136
C     -0.621087   -4.353557    0.475055
C     -1.237129    1.257157    0.505809
C     -0.225223    1.961290   -0.313684
C     -1.668859   -0.629155   -1.945001
C      2.032736    3.620486   -0.998639
C     -3.709454   -1.465215   -2.836271
C      4.247691    3.833905   -1.909151
C     -0.769232   -0.543401    2.865371
C     -2.461785   -1.379466    4.373386
C      1.544340   -2.645942   -0.196993
C     -2.437028   -0.980514   -3.027761
C      3.046904    4.406447   -1.565998
C     -1.193113   -0.883656    4.118434
C     -2.109122   -0.733854   -0.611514
C     -1.675585   -0.710699    1.799702
C      2.196503    2.266118   -0.766509
C     -4.159920   -1.579403   -1.549594
C      4.405984    2.470566   -1.674983
C     -3.297655   -1.522754    3.301582
C      2.636612   -1.875666   -0.535911
C      0.332449   -2.112853    0.144012
C     -3.360758   -1.216666   -0.444109
C     -2.922904   -1.191434    1.977816
C      3.415752    1.711807   -1.124922
C      2.465765   -0.506077   -0.519164
C      0.158308   -0.714620    0.161825
C      1.234679    0.041437   -0.167188
C     -3.870963   -1.483170    0.899732
C      3.590430    0.279687   -1.002822
C     -1.204365   -0.233549    0.465900
C      1.159327    1.514437   -0.079034
O     -5.445442   -2.065172   -1.261339
O      5.616540    1.849666   -2.011481
O     -4.587008   -2.012819    3.466199
O      3.873402   -2.440758   -0.884667
O     -5.021957   -1.924392    1.121863
O      4.695737   -0.230018   -1.315463
O      1.507749    1.749711    1.318951
O     -0.286318   -0.716448    5.188128
O     -0.718480   -2.964804    0.470736
H     -1.768971   -1.806992   -4.919336
H     -2.650299   -0.271172   -5.045209
H     -0.999203   -0.212898   -4.383043
H      1.778440    6.054567   -2.116492
H      3.124219    6.476936   -0.928419
H      3.465190    6.173356   -2.647154
H      1.558094   -0.092659    5.843521
H      0.918847    0.819329    4.451925
H      1.561377   -0.817569    4.176601
H     -0.487431   -4.711616   -0.548692
H     -1.615796   -4.751044    0.817406
H      0.143237   -4.728357    1.184118
H     -2.255325    1.555936    0.109839
H     -1.233361    1.669147    1.537850
H     -0.241903    3.071470   -0.115618
H     -0.482399    1.885625   -1.379581
H     -0.671323   -0.271655   -2.138561
H      1.141340    4.185905   -0.772450
H     -4.343106   -1.750050   -3.663875
H      5.023189    4.445027   -2.343561
H      0.235208   -0.159800    2.668990
H     -2.745817   -1.630651    5.378255
H      1.653894   -3.733545   -0.201576
H     -6.055129   -2.337849   -2.020987
H      6.331340    2.428162   -2.415185
H     -4.884548   -2.256646    4.387197
H      3.918984   -3.450429   -0.873445
H      2.479160    1.559797    1.373677
