68

C     -3.933567   -3.295430   -0.305934
C     -4.637099   -3.605337    0.813270
C      5.131603    2.337696   -0.766852
C      6.482373    2.410927   -0.408306
C      4.484066    1.136486   -0.601325
C     -3.582790   -1.995224   -0.599973
C     -6.375137    2.653749   -0.549121
C     -7.651321    2.024330   -0.929146
C     -2.000858    2.179882   -0.448714
C     -0.755298    2.717591   -0.406487
C     -5.697265    0.344452   -1.474122
C     -4.220134    0.715226   -1.447151
C     -4.995366   -2.551695    1.663970
C      6.414105    0.072594    0.244057
C     -1.166074    0.175886    0.456401
C      2.618575   -2.602958    0.155752
C      8.553527    1.363799    0.428609
C     -6.435523    1.193041   -0.430749
C      7.080465    1.287909    0.080608
C     -2.243264    0.860471   -0.002483
C      5.098900   -0.003211   -0.103487
C      0.316793    2.037430    0.052265
C      0.140999    0.689738    0.516812
C      3.062588   -1.343381    0.491654
C     -3.938534   -0.954798    0.240119
C      3.608465   -3.224059   -0.606403
C      2.252831   -0.382342    1.281733
C     -3.639937    0.460565   -0.065826
C      3.601769   -4.599970   -1.203037
F      1.542928    2.603516    0.086024
F      4.382461   -5.407473   -0.414420
F      4.177344   -4.513999   -2.448960
F      2.296175   -5.059913   -1.226800
N      9.038738    0.222806    1.100644
N     -4.345578    1.253895    0.935774
N     -4.641821   -1.295025    1.354449
N      1.268050    0.126616    0.942556
N      4.606728   -2.314936   -0.694841
N      4.274145   -1.197835   -0.045548
O      2.856228   -0.148615    2.587086
H     -3.651317   -4.115164   -0.978526
H     -4.935613   -4.618806    1.060481
H      4.619389    3.188433   -1.158554
H      7.035889    3.322110   -0.514327
H      3.441795    1.045436   -0.877808
H     -3.005015   -1.765340   -1.491204
H     -5.803927    3.171687   -1.361704
H     -6.295792    3.233407    0.388238
H     -7.902103    1.951442   -2.025044
H     -8.490710    2.156245   -0.208886
H     -2.794057    2.766052   -0.795820
H     -0.607969    3.760863   -0.760581
H     -6.088221    0.672724   -2.458982
H     -5.802325   -0.721508   -1.370813
H     -3.713928    0.015202   -2.137978
H     -4.115959    1.719651   -1.823344
H     -5.560620   -2.820689    2.544309
H      6.900962   -0.790163    0.642488
H     -1.286015   -0.839888    0.798945
H      1.673719   -3.055548    0.433719
H      9.039077    1.486604   -0.598662
H      8.714795    2.274445    1.033481
H     -6.611629    0.698471    0.506283
H      8.610057    0.045366    2.010566
H      9.350649   -0.571001    0.550699
H     -3.893806    2.187312    1.019925
H     -4.204229    0.761289    1.849445
H      2.346611    0.468962    3.178848
