61

C     -1.352974   -1.123079   -0.094335
C      4.919217   -3.594332   -0.729309
C      5.364225   -3.706125   -2.023558
C     -6.008526   -1.875869    0.254313
C     -5.868936   -1.989370    1.760885
C      4.176202   -2.498253   -0.292361
C      5.059357   -2.701347   -2.896016
C      2.945294   -0.140397    0.695619
C     -3.247728    5.044108    0.667358
C     -3.853453    3.829532    0.847388
C      4.205097    0.175950    1.426875
C     -4.521464   -1.876474   -0.142752
C     -4.573906   -1.258140    2.063819
C     -1.262830    3.826459   -0.036511
C      1.581984   -0.588801   -1.240595
C     -1.919597    0.212673    0.101811
C      3.063984   -0.303232   -0.783445
C     -1.950612    5.018727    0.224285
C      3.873003   -1.494588   -1.166013
C     -1.877206    2.634844    0.146905
C      4.331366   -1.617663   -2.484931
C     -3.185390    2.624501    0.593083
C      4.749533    1.479142    0.955520
C     -1.241729    1.408311   -0.100315
C     -3.220506    0.269118    0.545992
C      0.116763    1.357873   -0.596425
Br    -1.080189    6.707913   -0.034449
Cl     3.930697   -0.316718   -3.591533
N      0.823319    0.419241   -0.907051
N     -3.826079    1.464351    0.782293
N     -4.033374   -0.875671    0.776715
O      4.171931    2.176878    0.110493
O      5.951923    1.905978    1.499151
O      0.794572    2.605300   -0.769232
H     -1.080817   -1.404368   -1.099062
H     -0.443014   -1.174844    0.562450
H     -2.093864   -1.893785    0.255719
H      5.127004   -4.355209    0.007666
H      5.932550   -4.580109   -2.286397
H     -6.433850   -0.901332   -0.048822
H     -6.545579   -2.702209   -0.204617
H     -6.745338   -1.534561    2.251377
H     -5.828067   -3.068648    1.993294
H      3.839395   -2.475628    0.743242
H      5.407473   -2.787420   -3.913487
H      2.464987   -1.070526    1.106886
H      2.189040    0.679982    0.854944
H     -3.754819    5.992408    0.861152
H     -4.856603    3.766776    1.188812
H      3.911912    0.362465    2.499946
H      4.978694   -0.589628    1.422186
H     -4.438724   -1.608034   -1.195411
H     -4.182886   -2.904124    0.112047
H     -3.919900   -1.963859    2.610835
H     -4.863363   -0.367236    2.667170
H     -0.271266    3.918455   -0.372635
H      1.347946   -1.638597   -0.922505
H      1.723556   -0.684400   -2.372880
H      3.453117    0.557753   -1.321146
H      6.571028    2.540243    1.005584
H      1.477420    2.685594   -1.506391
