45

C     -1.631024    0.415257   -1.574061
C      5.684324    0.909041   -2.556405
C      6.932981    1.317182   -2.121469
C      4.829534    0.209925   -1.693599
C     -4.102934   -0.944329   -0.024894
C     -4.176343    1.327825    0.589859
C     -5.457347   -1.071964    0.211806
C     -5.529392    1.206424    0.827979
C      6.503716    0.364644   -0.025548
C      8.643731    1.469181   -0.343014
C      2.193023    0.271935   -0.058696
C      2.191464   -1.803423    1.058737
C     -1.967589    0.358872   -0.102696
C      7.369239    1.053228   -0.845256
C     -3.423539    0.235840    0.151051
C     -6.206991   -0.002323    0.643987
C      5.235348   -0.066896   -0.418860
C      2.926624   -0.749187    0.495527
C      4.370286   -0.754121    0.504063
C     -7.634904   -0.090050    0.908539
C      0.142556   -0.781494    0.496733
N      9.700274    1.792360    0.072521
N     -8.343239   -1.304759    0.785690
N      0.834083    0.230628   -0.044784
N      0.849917   -1.788331    1.042607
N     -1.299034   -0.770265    0.497028
O      4.936375   -1.428977    1.414745
O     -8.252864    0.939285    1.255296
H     -2.502231    0.692860   -2.203496
H     -1.238118   -0.596790   -1.886093
H     -0.783093    1.124363   -1.795157
H      5.397579    1.142776   -3.562938
H      7.593874    1.856344   -2.786371
H      3.858642   -0.100156   -2.098904
H     -3.520234   -1.814885   -0.370658
H     -3.648728    2.254194    0.729397
H     -5.981076   -2.018732    0.066015
H     -6.120461    2.047253    1.168037
H      6.773747    0.113268    1.005102
H      2.716134    1.121453   -0.496724
H      2.780100   -2.607065    1.494518
H     -1.565641    1.311615    0.348225
H     -8.213383   -2.040982    1.504618
H     -8.996020   -1.499297    0.001279
H     -1.869364   -1.531727    0.904983
