56

C      8.483171    1.716562    0.717492
C     -5.523839   -3.261469    0.299080
C     -5.384058    3.622247    0.467153
C     -4.835900   -2.746006   -0.781557
C     -5.374312   -2.679503    1.540001
C     -4.880310    3.027389   -0.649449
C     -5.134622    3.114786    1.726204
C     -4.008117   -1.651752   -0.593252
C     -4.541240   -1.587825    1.699454
C     -4.101652    1.888000   -0.503816
C     -4.358110    1.982670    1.837500
C      7.235575   -0.386616    0.148211
C      6.148787    1.707604   -0.100416
C      6.090468   -1.048887   -0.294429
C      5.021594    1.036816   -0.537316
C     -1.775911    0.215038    0.028147
C     -0.857147   -0.986441    0.164029
C      7.260028    0.987302    0.243293
C     -3.843144   -1.054127    0.636225
C     -3.819487    1.337104    0.726004
C      4.970026   -0.331285   -0.641536
C     -2.978097    0.112590    0.899323
C      2.514618   -0.398557   -1.498631
C      3.778921   -1.051927   -1.103994
C      1.853125   -1.446517   -2.343625
C      1.571051   -0.254430   -0.364206
C      0.435039   -1.304373   -2.027929
N      3.620803   -2.317751   -1.239305
N      0.304132   -0.860704   -0.694685
O      1.847910    0.311584    0.712796
O     -0.513751   -1.535747   -2.805575
O      2.350525   -2.627555   -1.704229
H      9.158188    1.024302    1.261773
H      8.175144    2.567929    1.345676
H      9.028372    2.097812   -0.166630
H     -6.161053   -4.114707    0.119917
H     -5.995970    4.521768    0.317633
H     -4.946516   -3.195377   -1.758728
H     -5.924176   -3.103378    2.366476
H     -5.058384    3.402760   -1.659732
H     -5.556602    3.620564    2.596549
H     -3.477464   -1.253966   -1.426316
H     -4.461677   -1.168743    2.703355
H     -3.708527    1.422246   -1.420813
H     -4.150668    1.569802    2.806636
H      8.134158   -0.923106    0.429061
H      6.187185    2.789173   -0.018864
H      6.129194   -2.109901   -0.347686
H      4.147396    1.604526   -0.807650
H     -2.028697    0.421680   -1.013925
H     -1.183373    1.089091    0.391265
H     -1.461845   -1.872899   -0.135982
H     -0.531425   -1.148488    1.194318
H     -2.653933    0.075135    1.978271
H      2.675405    0.555828   -2.036093
H      2.109189   -1.400272   -3.399473
