49

C     -4.353942    0.433161    0.339493
C     -5.221912   -1.261879    1.847990
C      5.677564   -0.708182    0.979913
C      0.690068    2.090692   -2.192204
C     -0.200500    0.898350   -2.280499
C     -2.931202   -1.491869    0.943843
C      3.209977    1.946391   -2.280849
C      3.139931    0.269736   -0.039500
C      0.639177   -0.462411    1.077424
C     -1.578014   -0.129002   -0.710854
C     -3.939899   -0.527445    1.414026
C      2.025037    1.613440   -1.705198
C     -1.630091   -1.031158    0.460835
C      1.989059    0.786623   -0.599777
C      0.646519    0.492953   -0.057734
C     -0.793661   -0.483223    1.630850
C      4.387590    1.434925   -1.730774
C      4.363740    0.608161   -0.626754
N     -0.184877    0.027682   -1.147816
O     -0.921677   -1.323298    2.706675
O      5.584588    1.769464   -2.309799
O      5.553055    0.145617   -0.143038
H      6.720205   -0.830555    1.302500
H      5.137330   -0.242130    1.837841
H      5.239270   -1.693018    0.821167
H     -3.927677    1.464522    0.512931
H     -4.165326    0.072859   -0.688214
H     -5.474697    0.603615    0.354402
H     -5.610685   -1.904311    1.056521
H     -5.925370   -0.446199    2.151734
H     -4.973391   -1.802247    2.787269
H      0.301101    2.894851   -1.542652
H      0.853897    2.488267   -3.205854
H      0.099291    0.332034   -3.206525
H     -1.233440    1.281940   -2.528889
H     -2.762157   -2.262586    1.762077
H     -3.437806   -2.125122    0.141657
H      3.215886    2.595695   -3.146639
H      3.106809   -0.376932    0.825254
H      0.875601   -1.500030    0.716694
H      1.361269   -0.174474    1.859164
H     -1.943722    0.886087   -0.590164
H     -2.083244   -0.616515   -1.563005
H     -3.641679    0.012523    2.355347
H     -1.041280   -1.959974    0.159820
H      0.225229    1.476476    0.294878
H     -1.097771    0.551935    1.798467
H     -1.685851   -1.049128    3.258340
H      5.717677    2.351814   -3.100370
