40

C     -3.369950   -1.080163   -2.340608
C     -4.517963   -0.330324   -2.143088
C     -2.365009   -1.137443   -1.402077
C     -4.641478    0.373177   -0.966552
C      3.538494    0.695306   -1.122038
C      4.493691   -0.536043    0.639575
C      4.774838    1.092163   -1.583723
C      5.767741   -0.156956    0.204960
C     -1.829160    1.811636    1.843480
C     -3.182507    1.309340    2.225543
C      3.365396   -0.111360   -0.022869
C      5.905434    0.653430   -0.901767
C     -2.515054   -0.427784   -0.241205
C     -3.672112    0.344413   -0.012086
C      0.719197   -0.142719   -0.160862
C      2.013489   -0.508482    0.431283
C     -1.443204   -0.495279    0.745226
C     -0.204603   -1.198411    0.414481
C      0.168882    1.112699    0.470612
Cl     7.505980    1.138807   -1.460359
N      1.785402   -1.257469    1.447155
N     -1.071082    0.885340    1.070972
O      0.758580    2.238394    0.458952
O     -4.018076    1.133164    1.089916
O      0.459303   -1.484966    1.669418
H     -3.303433   -1.622059   -3.276742
H     -5.308397   -0.286648   -2.883724
H     -1.478497   -1.716083   -1.560985
H     -5.554514    0.965317   -0.817409
H      2.670217    1.037538   -1.653070
H      4.423438   -1.172346    1.511163
H      4.888421    1.734225   -2.460267
H      6.670408   -0.474470    0.704310
H     -1.265777    2.001635    2.790529
H     -1.987465    2.779343    1.285061
H     -3.087124    0.354722    2.785942
H     -3.678511    2.035036    2.880819
H      0.717723   -0.080954   -1.246974
H     -1.904074   -0.902532    1.693753
H     -0.228647   -2.138890   -0.106746
