49

C     -4.297031   -2.231183   -0.027743
C     -5.826916   -0.364995    0.341623
C      5.894101   -1.590386    1.682179
C      1.544137    2.497522   -1.574355
C      0.109118    2.239298   -1.262628
C     -3.482472    0.129898    0.415532
C      3.799901    2.030705   -0.821491
C      2.995225   -0.355630    0.352494
C      0.179674   -0.984142    0.505592
C     -1.406766    1.274030    0.196539
C     -4.439788   -0.935899    0.716676
C      2.491920    1.607354   -0.865106
C     -2.035468   -0.014500    0.646239
C      2.094768    0.421185   -0.281047
C      0.640901    0.094806   -0.394817
C     -1.317912   -1.208960    0.176736
C      4.727579    1.263194   -0.187364
C      4.346569    0.040979    0.421052
N     -0.060996    1.310164   -0.146651
O     -1.596492   -2.361316    0.932475
O      6.081092    1.631557   -0.103531
O      5.245988   -0.669506    1.018053
H      7.036515   -1.434130    1.657657
H      5.809945   -2.623496    1.242729
H      5.693563   -1.689919    2.787658
H     -3.575125   -2.200272   -0.866091
H     -5.273945   -2.503052   -0.557677
H     -4.163581   -3.116397    0.651634
H     -5.856273    0.627291    0.861169
H     -5.899905   -0.171414   -0.728590
H     -6.607654   -1.001864    0.770667
H      1.693299    2.338618   -2.662096
H      1.849993    3.558396   -1.374606
H     -0.364914    3.192024   -0.965273
H     -0.478332    1.841632   -2.125515
H     -3.680956    0.424065   -0.670643
H     -3.861852    1.060303    0.952352
H      4.124504    2.965121   -1.279966
H      2.685615   -1.280939    0.806656
H      0.218911   -0.714726    1.593016
H      0.675571   -1.958808    0.341063
H     -2.044547    1.701454   -0.642075
H     -1.582708    2.029414    1.023218
H     -4.576092   -1.122015    1.826698
H     -1.899367   -0.014274    1.784277
H      0.477367   -0.247861   -1.444602
H     -1.319765   -1.395973   -0.915343
H     -1.502788   -3.119543    0.275446
H      6.735391    1.032191    0.376658
