53

C     -5.069129   -0.572017   -1.270593
C      0.458703    4.414240   -1.021089
C     -3.588149   -0.714424   -1.399059
C      5.336229   -0.554705    0.989376
C      4.357659    0.384824    1.277359
C      0.780219   -1.769409   -1.343990
C     -0.371356   -2.377937   -0.572392
C     -3.127526   -0.000931    0.957444
C      3.783335   -1.811767   -0.359754
C     -1.047108    1.240089    1.310100
C     -1.038627   -1.201829    1.444520
C     -1.838380    0.063059    1.790423
C     -2.813161    0.223454   -0.499786
C      5.041991   -1.621688    0.189042
C      1.448006   -0.756619   -0.455688
C      2.831164   -0.839024   -0.041105
C      3.106543    0.229124    0.753750
C      0.928820    0.331974    0.082804
C     -1.334630   -0.174037   -0.662992
C     -0.382862    2.108513   -0.829861
C     -0.436516    0.865198   -0.036557
N      1.928628    1.002814    0.868299
N     -1.202754   -1.403870    0.050213
O      5.993728   -2.596612   -0.131186
O     -0.975238    2.209584   -1.923660
O      0.339390    3.180026   -0.347509
H     -5.525468   -1.032061   -2.195642
H     -5.437889    0.455443   -1.234011
H     -5.480057   -1.206958   -0.432458
H      0.850720    4.321478   -2.042026
H      1.130980    5.054961   -0.384753
H     -0.534706    4.906673   -0.988412
H     -3.306745   -0.579286   -2.462180
H     -3.342763   -1.789549   -1.168672
H      6.350879   -0.471387    1.385788
H      4.651930    1.205983    1.916136
H      1.500718   -2.591007   -1.534110
H      0.491541   -1.349282   -2.308890
H      0.004729   -3.111481    0.147299
H     -1.000918   -2.917134   -1.333007
H     -3.584132   -0.965550    1.172318
H     -3.812900    0.796915    1.339399
H      3.528149   -2.633166   -0.985579
H     -0.294378    1.557674    2.046015
H     -1.730100    2.122764    1.161325
H     -1.558473   -2.029072    2.004733
H     -0.012870   -1.156526    1.806829
H     -2.113712    0.097379    2.843919
H     -2.997433    1.249778   -0.836704
H     -1.176006   -0.257218   -1.749979
H      2.107240    1.966821    0.563941
H      1.632581    0.923601    1.881956
H      6.550105   -2.427822   -0.971937
