52

C      6.055800    0.514418   -0.662905
C      4.787844    0.720327    1.435214
C     -6.056925   -2.399521    0.071137
C     -4.885339    3.011817   -0.554735
C     -1.040313   -1.993100    0.690570
C      0.120787   -1.401175    1.410196
C      3.637994    0.160308   -0.734294
C     -3.417249   -1.441187    0.289390
C     -2.843928    1.184295   -0.013583
C      0.258865    0.950033   -0.966661
C      1.809276    0.305113    1.022039
C      4.830004   -0.030686    0.115143
C     -2.129456   -1.025221    0.403349
C      2.322664   -0.298785   -0.228826
C     -1.808048    0.285519    0.256867
C     -0.410218    0.734702    0.381338
C      1.232470   -0.152426   -1.293875
C     -4.462723   -0.584926    0.023816
C     -4.150074    0.754260   -0.127994
N      0.417513   -0.067911    1.177056
O      1.874541    0.203555   -2.478580
O     -5.781371   -1.031462   -0.089881
O     -5.192303    1.638368   -0.397181
H     -7.134755   -2.591509   -0.000779
H     -5.611414   -2.770996    1.020884
H     -5.507307   -2.934022   -0.742004
H     -4.308337    3.352557    0.321434
H     -4.320287    3.141582   -1.499912
H     -5.856906    3.571669   -0.636798
H      6.977175    0.292635   -0.104335
H      6.132501   -0.038040   -1.636528
H      5.898509    1.587639   -0.792209
H      4.636974    0.036971    2.288392
H      5.783553    1.201223    1.641439
H      4.063779    1.546344    1.366291
H     -0.777907   -2.530073   -0.237530
H     -1.508958   -2.780129    1.352505
H     -0.039263   -1.545150    2.521521
H      1.006310   -2.072525    1.201189
H      3.863643   -0.343197   -1.725120
H      3.588223    1.248359   -1.005638
H     -3.654648   -2.495959    0.410153
H     -2.601283    2.246259   -0.134693
H      0.771487    1.914458   -1.039980
H     -0.535781    0.913798   -1.725453
H      2.311529    0.050864    1.951311
H      1.763886    1.423562    0.847739
H      5.085256   -1.101923    0.296784
H      2.417249   -1.428330   -0.116422
H     -0.456219    1.758197    0.849614
H      0.664462   -1.063951   -1.467501
H      2.178719   -0.626629   -2.931952
