52

C     -5.129766    0.887629    1.519290
C     -5.470213   -0.343268   -0.535755
C      6.449735    1.384317    0.255786
C      4.017035   -3.523422   -0.795397
C      1.485796    2.292588    0.727853
C      0.050278    2.190052    0.261469
C     -3.255776    0.697455    0.012601
C      3.666663    1.124739    0.334981
C      2.441927   -1.246790   -0.170553
C     -0.441896   -1.429212   -0.238797
C     -1.278228    0.973378   -1.353918
C     -4.419000   -0.059934    0.532583
C      2.269456    1.047716    0.387473
C     -2.393890   -0.013038   -0.976823
C      1.665705   -0.155566    0.129964
C      0.188945   -0.164242    0.201078
C     -1.895703   -1.337052   -0.589088
C      4.450758    0.033583    0.033976
C      3.819549   -1.184288   -0.225489
N     -0.230477    1.019678   -0.462028
O     -2.125151   -2.251566   -1.624216
O      5.841034    0.138982   -0.011395
O      4.619802   -2.267972   -0.525467
H      5.977268    2.207123   -0.334191
H      7.515450    1.374372   -0.036545
H      6.357472    1.673640    1.326538
H      3.345926   -3.443803   -1.663660
H      3.436296   -3.792382    0.123957
H      4.749784   -4.320324   -0.948624
H     -4.470840    1.193481    2.331969
H     -5.351345    1.808477    0.919376
H     -6.099517    0.476154    1.836865
H     -6.414298   -0.557496    0.006724
H     -5.621758    0.574591   -1.125700
H     -5.231061   -1.227641   -1.139389
H      1.975819    3.141254    0.175809
H      1.593060    2.442029    1.802599
H     -0.566136    2.176606    1.207740
H     -0.255178    3.122743   -0.254087
H     -2.641515    1.023015    0.874077
H     -3.635671    1.631025   -0.459362
H      4.103225    2.109882    0.548640
H      1.998152   -2.227191   -0.381581
H     -0.333802   -2.199008    0.554791
H      0.141172   -1.832333   -1.096054
H     -0.931573    0.766030   -2.388656
H     -1.783044    1.979863   -1.417547
H     -4.194258   -0.952165    1.120279
H     -3.002457   -0.092661   -1.924870
H     -0.053522   -0.010000    1.285007
H     -2.517878   -1.725664    0.268310
H     -2.416355   -3.133384   -1.283579
