61

C      2.814708    2.207946   -0.590889
C      2.533272   -2.716867    0.260588
C     -2.428147   -1.993150    1.535270
C     -2.683717    1.395611   -2.511246
C      0.497950    2.037625    2.921811
C     -0.883801    2.072929    2.862517
C      1.208689    1.338486    1.964020
C     -1.557484    1.421019    1.862540
C      2.598093    0.883156   -1.278412
C      2.829856   -1.256605    0.434642
C     -2.699941   -1.594450    0.141111
C     -3.084615    0.852992   -1.179229
C      0.532170    0.681456    0.956381
C     -0.856536    0.720840    0.902469
C      3.816136    0.052784   -1.395428
C      4.054704   -0.789573   -0.234264
C     -4.101205   -1.063320   -0.078332
C     -4.086843   -0.293217   -1.374650
O      4.914837    0.912471   -1.593083
O      4.784473   -1.929012   -0.650112
O     -4.589648   -0.346466    0.983429
O     -3.570862   -1.092621   -2.376453
P      1.483095   -0.236589   -0.299997
P     -1.678368   -0.160430   -0.442155
C      0.997638   -0.206807   -0.028771
F      1.539826    0.447832    1.040160
F      1.313132    0.497616   -1.190401
F      1.551601   -1.465101   -0.051243
O     -1.430779    1.227971    0.068949
O     -1.250625   -1.034664    1.253343
O     -1.244753   -1.068240   -1.160043
S     -0.774892   -0.298087    0.041797
H      1.855520    2.527170   -0.129027
H      3.038037    2.953453   -1.384260
H      3.663965    2.209233    0.104720
H      1.965195   -2.851538   -0.664815
H      3.470123   -3.300362    0.213863
H      1.922312   -3.071068    1.118991
H     -3.384561   -2.392673    1.976534
H     -2.115231   -1.177645    2.211235
H     -1.684440   -2.796116    1.589650
H     -3.549227    1.325341   -3.224227
H     -1.908639    0.694237   -2.937977
H     -2.304426    2.425993   -2.494876
H      1.011794    2.560198    3.721298
H     -1.438798    2.626617    3.621669
H      2.307560    1.315226    2.018126
H     -2.654188    1.432170    1.790965
H      2.106719    1.086492   -2.246389
H      2.848887   -1.044966    1.537394
H     -2.508030   -2.457898   -0.532254
H     -3.454310    1.588237   -0.466712
H      3.742225   -0.544227   -2.349860
H      4.715437   -0.289330    0.523055
H     -4.751847   -1.938442   -0.236263
H     -5.097129    0.064826   -1.562782
H      5.324416    1.072804   -0.695168
H      5.751838   -1.727246   -0.687577
H     -4.747245    0.597877    0.787727
H     -3.972773   -1.993380   -2.423567
H     -0.701149    1.899479    0.026209
