51

C     -0.078267   -1.954767   -1.240685
C     -0.628056   -0.189072   -2.796942
C      4.722728   -0.978939    0.676949
C      4.462121    0.220154   -0.221904
C      3.528831   -1.073145    1.605439
C     -3.915039    1.117126    1.790928
C     -5.186684   -0.605665    0.062729
C     -0.685913    1.298353    0.979829
C      2.118298   -0.320891   -0.945285
C      1.359267   -0.027136    1.508445
C     -3.193038    0.497748    0.791231
C     -1.787425    0.539227    0.391797
C     -5.893298    0.020652    1.066100
C     -5.278402    0.893423    1.951019
C     -3.851899   -0.362211   -0.063700
C      0.754689    0.383997   -0.865638
C     -1.653468   -0.248434   -0.627771
C      2.664828    1.938201   -0.042593
C     -0.362569   -0.460291   -1.304342
C      0.667692    0.922092    0.533044
C      3.028641    0.490762   -0.030119
Br    -7.778052   -0.306605    1.265090
Cl    -6.227590    1.647401    3.190551
N     -2.908784   -0.851937   -0.973768
N      1.505134    2.141269    0.542715
N      2.770121    0.095925    1.364855
O      3.428690    2.927390   -0.587220
H      0.828738   -2.232776   -1.814959
H     -0.929912   -2.431513   -1.812693
H     -0.130614   -2.365822   -0.235041
H     -1.126839    0.791697   -2.859622
H     -1.288199   -0.949588   -3.221749
H      0.331366   -0.101765   -3.351164
H      4.730465   -1.927645    0.087411
H      5.674677   -0.829245    1.215818
H      5.107754    1.072444    0.015330
H      4.616458   -0.136458   -1.280124
H      3.945595   -1.004130    2.652877
H      2.996627   -2.025241    1.537944
H     -3.448099    1.803552    2.492248
H     -5.706224   -1.267052   -0.590667
H     -0.905693    2.390995    0.794204
H     -0.713820    1.216709    2.106608
H      2.489252   -0.390256   -1.965438
H      2.053447   -1.334226   -0.455920
H      1.045003   -1.061349    1.397189
H      1.027075    0.293486    2.536121
H      0.859512    1.258212   -1.569111
H     -3.188547   -0.500132   -1.933369
H     -2.848080   -1.874907   -1.051147
H      2.997502    3.850382   -0.715502
