56

C      0.589277    2.410407   -1.244692
C     -5.571605    0.361867   -0.629257
C      6.978167   -1.667938    0.852693
C     -3.410618   -2.515750   -1.365093
C     -3.631312   -0.172685   -2.408002
C      1.242507    1.250740    0.766290
C     -4.062166    0.511917    1.282499
C      2.518254    1.918410    0.899042
C     -4.197180   -0.941481    1.681360
C     -0.918694    0.652129   -0.158832
C     -1.862140    0.770146   -1.061613
C      5.581991   -1.020003   -1.563596
C      0.334083    1.424713   -0.171086
C     -4.149163    0.692420   -0.203333
C      5.818956   -0.730359    0.887517
C     -2.803634   -1.417647   -0.491201
C      3.683711    0.997628    0.956942
C      5.168899   -0.439445   -0.289885
C     -3.218762   -1.701594    0.896896
C      5.392900   -0.154464    2.078781
C      4.096767    0.433116   -0.230582
C      4.329285    0.710117    2.132606
C     -3.126819   -0.060451   -0.982322
Cl     6.237278   -0.542229    3.554376
O      6.547077   -1.814327   -1.665382
O     -2.688334   -2.670564    1.441131
O      3.462056    0.706329   -1.434021
O      3.870840    1.306118    3.293489
H      1.085746    1.882082   -2.080803
H      1.169689    3.303462   -0.901018
H     -0.341542    2.838940   -1.690235
H     -5.852639   -0.676657   -0.405033
H     -5.747320    0.637769   -1.692878
H     -6.233665    1.022357   -0.032079
H      7.797732   -1.284918    0.231864
H      7.316929   -1.801132    1.901417
H      6.602261   -2.660529    0.506465
H     -4.498748   -2.582990   -1.230670
H     -3.091632   -2.426401   -2.419049
H     -2.975175   -3.465881   -0.983680
H     -3.978086    0.860233   -2.682468
H     -4.518650   -0.815500   -2.493959
H     -2.829907   -0.419098   -3.126167
H      0.990657    0.505616    1.535470
H     -3.170622    0.988454    1.727168
H     -4.944891    1.035308    1.725769
H      2.707290    2.567160    0.021941
H      2.607567    2.580984    1.785924
H     -3.981772   -1.039127    2.764833
H     -5.238869   -1.253737    1.452127
H     -1.064869   -0.069282    0.665006
H     -1.718641    1.468861   -1.866630
H      5.041455   -0.760762   -2.457566
H     -4.020078    1.777615   -0.408889
H     -1.702749   -1.579025   -0.543303
H      4.378907    1.069077    4.160554
