51

C      0.299592   -2.170690    1.965227
C      0.337722   -2.416999   -0.458810
C     -4.922960    0.567123   -1.048404
C     -4.388610   -0.151644    0.198333
C     -3.711155    0.709668   -1.967521
C      3.917967    1.825721   -0.632090
C      5.177939    0.170307    1.187319
C      0.778335    0.842224   -1.044926
C     -2.047423   -0.904673    0.752165
C     -1.408323    0.032513   -1.737904
C      3.230394    0.776142   -0.049587
C      1.861273    0.291228   -0.184411
C      5.220199    2.027127   -0.294265
C      5.861206    1.221610    0.601773
C      3.857089   -0.045755    0.854165
C     -0.642375   -0.372343    0.624506
C      1.734653   -0.742274    0.600630
C     -2.531788    1.490161    0.267540
C      0.409277   -1.424093    0.641452
C     -0.591127    0.551175   -0.547428
C     -2.931842    0.071891    0.031471
Br     6.165598    3.484550   -1.106708
Cl     7.545480    1.539407    0.992480
N      2.950687   -1.019743    1.291621
N     -1.312276    1.770719   -0.134202
N     -2.770496   -0.207959   -1.405778
O     -3.344955    2.428995    0.847714
H     -0.561012   -2.849972    1.973572
H      1.239062   -2.746057    2.135948
H      0.153472   -1.428074    2.779484
H      0.930433   -2.085505   -1.361637
H     -0.669733   -2.764674   -0.721689
H      0.890451   -3.340137   -0.112011
H     -5.199177    1.588877   -0.706545
H     -5.741429    0.017023   -1.518440
H     -4.611378   -1.211686    0.095997
H     -4.817215    0.289158    1.116635
H     -3.290087    1.734498   -1.925355
H     -3.988079    0.481571   -3.013058
H      3.415894    2.469200   -1.344039
H      5.709490   -0.452626    1.894023
H      0.961109    0.411949   -2.068147
H      0.887653    1.950181   -1.124605
H     -2.196201   -1.891134    0.311559
H     -2.325648   -0.990170    1.831708
H     -0.978125   -0.876701   -2.169974
H     -1.294062    0.829516   -2.523731
H     -0.475227    0.265084    1.543095
H      3.320662   -1.967154    1.010974
H      2.772600   -0.987181    2.324488
H     -2.877535    3.209625    1.327388
