55

C      3.951918    2.027093    0.627740
C     -3.901408   -0.172259   -1.431984
C     -3.967474    1.807485    0.081615
C     -5.427591   -0.120961    0.505665
C     -2.497575    0.695050    2.528550
C     -3.496318   -2.069742    1.778018
C      4.926527   -0.641020    1.156456
C      5.377024    0.111296   -0.047954
C      3.748057   -1.247439    1.052724
C      1.495808   -1.327559    0.203443
C      0.477105   -0.504824   -1.855786
C     -0.387896    0.235012    0.348933
C      4.205003    0.995886   -0.462115
C      2.945465   -1.163542   -0.205584
C      1.467114    0.125121   -2.771851
C      2.885564    0.165120   -2.332143
C     -4.053459    0.287891   -0.013392
C      0.843168   -0.135170   -0.456008
C      2.985763    0.212098   -0.812092
I      4.003507   -1.455289   -3.131871
O      1.070931    0.575838   -3.832966
O     -1.336504   -0.778224    0.237216
O      1.809803    0.843225   -0.372733
Si    -2.755922   -0.472889    1.096805
H      3.991099    3.066671    0.233886
H      2.912813    1.919975    1.048192
H      4.725598    1.934520    1.414554
H     -4.605395   -1.016585   -1.659179
H     -2.888551   -0.532356   -1.656191
H     -4.143726    0.695903   -2.096968
H     -4.764825    2.194200   -0.608185
H     -4.151977    2.108596    1.121485
H     -2.998341    2.162611   -0.321546
H     -5.364802   -0.629143    1.484381
H     -5.892223   -0.832168   -0.213288
H     -6.082069    0.763118    0.653721
H     -2.443368    1.724111    2.168611
H     -1.630856    0.392471    3.153598
H     -3.397957    0.603276    3.181207
H     -4.314961   -2.422297    1.132006
H     -3.948885   -1.860722    2.777134
H     -2.735623   -2.852951    1.835223
H      5.527995   -0.680878    2.044417
H      5.540052   -0.636345   -0.849920
H      6.256857    0.725225    0.117875
H      3.397724   -1.805575    1.924997
H      1.342744   -1.250541    1.291442
H      1.105848   -2.267686   -0.227341
H      0.563333   -1.615739   -2.040539
H     -0.553904   -0.243439   -2.131942
H     -0.822435    1.131587   -0.143938
H     -0.154103    0.513241    1.376752
H      4.587437    1.578206   -1.351066
H      3.241506   -1.966334   -0.893103
H      3.332382    1.106850   -2.729701
