76

C     -0.818456   -4.395681    0.862573
C      5.376889    1.417049    2.186401
C      5.083142    3.199449    0.479953
C      6.637281    1.386974    0.062398
C     -5.665703    0.029399    0.507269
C     -6.270492    2.429025    0.084443
C     -5.376164    1.670864    2.283620
C      4.683565   -0.851079   -0.728462
C      3.284019    1.748981   -1.534422
C     -3.533944    1.595896   -1.633996
C     -3.058794    3.542493    0.675254
C      0.359788   -4.510710   -1.561554
C     -1.144579   -4.434887   -1.595865
C      0.961693   -3.352522   -1.514156
C      0.831393   -0.876509   -1.190953
C     -0.194756    0.172439    0.746373
C     -1.791490   -1.135845   -0.493176
C      2.112269   -0.865203    0.896853
C     -1.454971   -3.624223   -0.294071
C      0.127346   -2.134793   -1.578976
C     -1.501858   -0.011057    0.440716
C      5.276880    1.699537    0.719397
C     -5.329814    1.481749    0.785918
C      0.670842   -0.902394    0.388604
C     -0.830522   -2.276454   -0.389233
O      2.527876    0.455060    0.824584
O     -2.495887    0.713980    1.004319
O      0.124025   -2.121284    0.632959
Si     3.945882    0.691427   -0.033170
Si    -3.574205    1.793277    0.223271
H     -0.089467   -3.812048    1.426860
H     -0.303219   -5.310580    0.532546
H     -1.590382   -4.710842    1.608657
H      6.106580    2.119643    2.634718
H      4.368137    1.607061    2.616889
H      5.687364    0.366184    2.351337
H      4.122840    3.540087    0.899479
H      5.212114    3.446457   -0.585507
H      5.906531    3.698446    1.012516
H      6.620677    0.400377   -0.454141
H      6.911070    2.127823   -0.687071
H      7.438535    1.341670    0.816013
H     -5.254935   -0.600248    1.334754
H     -5.227568   -0.308682   -0.460601
H     -6.772817   -0.129504    0.462268
H     -7.166212    1.920638   -0.326523
H     -6.606730    3.183003    0.827151
H     -5.756502    2.961946   -0.745218
H     -5.222870    2.735340    2.548451
H     -6.352417    1.305078    2.651476
H     -4.589441    1.039302    2.728387
H      5.258709   -0.552655   -1.647125
H      5.451722   -1.231409   -0.012854
H      3.987581   -1.613852   -1.059793
H      3.991377    2.474255   -1.841038
H      2.863159    1.069531   -2.268487
H      2.387652    2.328895   -1.124630
H     -2.485792    1.565902   -2.004002
H     -4.081096    0.681718   -1.904025
H     -4.051044    2.474695   -2.056004
H     -2.359762    3.517366    1.556251
H     -3.958782    4.111199    0.935361
H     -2.529946    4.012185   -0.153089
H      0.882180   -5.451060   -1.592032
H     -1.623206   -5.404492   -1.516158
H     -1.471535   -3.807215   -2.417529
H      2.067996   -3.303867   -1.396615
H      1.881729   -0.874422   -1.476886
H      0.293879   -0.008597   -1.579048
H      0.082518    1.117694    1.184316
H     -1.821044   -0.699172   -1.515341
H     -2.851012   -1.501200   -0.326037
H      2.683825   -1.627705    0.468012
H      1.974934   -1.094045    2.007433
H     -2.536224   -3.595533   -0.171105
H     -0.440364   -2.044323   -2.538886
