55

C      4.373794   -0.881013   -1.497792
C     -4.140615   -0.986710    1.364637
C     -4.460011    1.386972    0.921628
C     -5.418631   -0.272486   -0.587673
C     -3.009384    1.173262   -2.266452
C     -2.444138   -1.679558   -1.438560
C      3.720499   -2.424048    0.870044
C      4.896753   -1.481628    0.827825
C      2.559568   -1.867651    1.221797
C      1.140221    0.075114    1.460390
C      0.988818    2.130246    0.152733
C     -0.182610    0.150178   -0.668666
C      4.478443   -0.344484   -0.089472
C      2.567051   -0.412844    1.523747
C      2.382939    2.609874    0.116928
C      3.460836    1.769176    0.670703
C     -4.222175    0.055812    0.266398
C      1.042750    0.604934    0.059574
C      3.201519    0.313244    0.364809
I      3.711912    2.088897    2.770625
O      2.637718    3.684997   -0.363542
O     -1.314689    0.567018    0.036374
O      2.194713    0.211795   -0.606741
Si    -2.710450    0.040282   -0.807575
H      5.278320   -1.517190   -1.667785
H      3.477660   -1.506675   -1.646391
H      4.441678   -0.041738   -2.211854
H     -3.281105   -0.797000    2.050884
H     -5.063154   -0.873568    1.979368
H     -4.138737   -2.002313    0.945510
H     -5.562112    1.473879    1.091238
H     -4.158795    2.242180    0.307618
H     -4.012369    1.428819    1.952703
H     -5.700425   -1.356925   -0.510365
H     -5.258138   -0.010392   -1.636035
H     -6.309664    0.274998   -0.174596
H     -3.848986    0.805632   -2.864910
H     -3.206238    2.193344   -1.851488
H     -2.067071    1.245298   -2.877840
H     -1.862950   -1.625783   -2.380033
H     -1.928274   -2.303096   -0.671063
H     -3.436352   -2.149515   -1.643214
H      3.826327   -3.475720    0.629202
H      5.781240   -1.956656    0.374486
H      5.156849   -1.116570    1.833149
H      1.675980   -2.493996    1.270514
H      0.454938   -0.777712    1.652625
H      0.911118    0.834146    2.233447
H      0.572004    2.424290    1.152880
H      0.352995    2.552878   -0.656850
H     -0.149773   -0.939421   -0.781801
H     -0.209451    0.688009   -1.642836
H      5.306126    0.394424   -0.078247
H      3.054736   -0.182636    2.489297
H      4.448792    2.057630    0.204465
