63

C     -4.906131    0.577269    2.233016
C     -3.640787    2.636193    1.736190
C     -5.953750    2.432283    0.952921
C     -2.988124    1.898839   -1.393434
C     -5.583750    0.295287   -1.314720
C      7.320596    3.844386   -0.350831
C      8.111960    2.746811   -0.559360
C      5.965726    3.666825   -0.120070
C      7.601359    1.473511   -0.546454
C      5.449583    2.395126   -0.106076
C     -1.016402   -1.702683    1.466340
C      0.277484   -1.957597    1.643413
C     -2.027833   -3.136952   -0.304489
C      5.744797   -0.096378   -0.311669
C     -1.956210   -0.632015   -0.479871
C      2.140282   -2.702276    0.171985
C      3.939180   -1.395338   -0.068990
C      6.234953    1.287661   -0.314145
C     -1.077421   -4.284702   -0.291369
C      0.127589   -4.134747    0.598424
C     -4.659741    1.677165    1.194711
C     -1.274531   -1.890244    0.007927
C      0.660933   -2.737933    0.434036
I      1.570488   -5.623375    0.174103
O     -1.244475   -5.285857   -0.948010
O      4.371652   -0.074150   -0.065035
O      2.562636   -1.382290    0.177682
O     -3.195362   -0.565318    0.115552
O      0.010638   -2.021495   -0.568263
Si    -4.069755    0.820455   -0.357781
H     -5.767613   -0.054539    1.930862
H     -3.985724   -0.064685    2.203810
H     -4.979905    0.990960    3.240228
H     -3.924749    3.694767    1.595178
H     -2.666706    2.490527    1.232957
H     -3.532251    2.488939    2.840239
H     -5.785429    3.113698    0.099802
H     -6.154222    3.037538    1.841519
H     -6.795768    1.713714    0.745330
H     -3.463753    2.032972   -2.403907
H     -1.950563    1.542675   -1.489912
H     -2.968132    2.912376   -0.927054
H     -6.487796    0.273566   -0.695053
H     -5.458282   -0.722016   -1.753187
H     -5.716560    0.995920   -2.162937
H      7.738593    4.836507   -0.364486
H      9.186570    2.852383   -0.744546
H      5.329704    4.517786    0.045603
H      8.237389    0.626395   -0.711885
H      4.393231    2.212937    0.071155
H     -1.736318   -1.419288    2.208927
H      0.908391   -1.653759    2.496546
H     -2.868883   -3.337071    0.388108
H     -2.406601   -3.052930   -1.347716
H      6.293928   -0.644786    0.494970
H      5.945807   -0.622680   -1.257417
H     -1.351541    0.222289   -0.054557
H     -1.951414   -0.536462   -1.564757
H      2.715494   -3.364091    0.821866
H      2.285593   -3.079641   -0.878748
H      4.495707   -1.930427    0.725025
H      4.183411   -1.880230   -1.020532
H     -0.257193   -4.321806    1.634024
