76

C     -1.721272    3.584147   -2.198368
C      5.823406   -2.530762   -0.272000
C      3.861016   -1.904673   -1.690759
C      3.578363   -3.026152    0.528483
C     -3.358701   -3.571759   -1.068482
C     -3.872767   -3.570830    1.363474
C     -5.658778   -3.153529   -0.236083
C      5.312921    0.840982   -0.360659
C      5.286884   -0.719187    2.252326
C     -4.197249   -0.458190    1.775380
C     -4.756080   -0.215194   -1.184470
C     -0.462824    5.224612    0.936255
C     -0.374052    4.867623   -0.526707
C     -0.551694    4.225294    1.787744
C      0.881601    2.311324    1.436263
C      0.011430    0.125303    0.634486
C     -1.876216    1.415566   -0.123356
C      2.250674    0.883660   -0.095404
C     -1.439026    3.777698   -0.736829
C     -0.564127    2.837674    1.354735
C     -1.363998    0.217203    0.084497
C      4.385537   -2.030764   -0.298775
C     -4.185257   -2.923917    0.022376
C      0.854497    1.311477    0.298704
C     -0.904551    2.563958   -0.061397
O      2.784272    0.135699    0.945013
O     -2.054382   -0.955247   -0.188351
O      0.247474    2.071812   -0.700250
Si     4.359553   -0.413603    0.636398
Si    -3.759521   -1.122969    0.086656
H     -2.739768    3.181837   -2.309983
H     -1.745220    4.602312   -2.680532
H     -0.949130    2.977328   -2.694714
H      5.895256   -3.617958   -0.381861
H      6.443631   -1.957907   -0.972903
H      6.199855   -2.288302    0.760880
H      2.828820   -2.294645   -1.803846
H      4.501870   -2.568404   -2.341544
H      3.976632   -0.894346   -2.085619
H      2.592221   -2.577096    0.758446
H      3.463961   -3.989155   -0.002368
H      4.097321   -3.172290    1.497382
H     -3.761516   -3.214323   -2.054467
H     -3.446037   -4.678353   -1.053886
H     -2.308616   -3.252720   -0.913837
H     -2.945142   -3.124799    1.741156
H     -3.829837   -4.668661    1.231352
H     -4.699682   -3.289141    2.044211
H     -5.888179   -4.190598    0.035119
H     -6.249781   -2.494112    0.441411
H     -5.942862   -2.980649   -1.281813
H      5.263610    0.546810   -1.428965
H      6.372256    0.796129   -0.040219
H      4.970299    1.878507   -0.177733
H      4.983886    0.077509    2.962121
H      5.129900   -1.731892    2.626544
H      6.375043   -0.564945    2.008069
H     -3.576312   -0.929527    2.563446
H     -5.249706   -0.712155    1.994800
H     -4.091109    0.643232    1.742344
H     -5.625298   -0.834043   -1.527986
H     -4.085116   -0.040936   -2.065690
H     -5.179380    0.731700   -0.791766
H     -0.450716    6.271791    1.232027
H      0.594780    4.377965   -0.741175
H     -0.577684    5.761002   -1.115341
H     -0.618220    4.440861    2.849193
H      1.550852    3.133651    1.156870
H      1.088310    1.854699    2.412202
H      0.000909   -0.007780    1.750295
H      0.511897   -0.788868    0.213947
H     -2.927394    1.535302   -0.322855
H      2.876577    1.723059   -0.399089
H      2.158762    0.205655   -0.968444
H     -2.331981    4.119321   -0.211515
H     -1.195101    2.207676    2.056919
