57

C     -2.748371    2.247663   -0.366198
C      5.191114    1.362706   -0.133861
C      3.055462    2.554077   -0.427359
C      3.808665    0.840494   -2.066025
C      3.905876   -1.684505    0.089974
C      2.900177    0.258664    2.172991
C     -4.277954    1.034809    1.989627
C     -4.758835    1.278494    0.601924
C     -3.513018   -0.016006    2.211354
C     -1.813442   -1.598831    1.333249
C     -0.884192   -2.041188   -0.947907
C     -3.232044   -1.242448   -1.308203
C      0.450302   -0.898385    0.734677
C     -3.674895    1.036190   -0.419047
C     -3.161551   -0.904094    1.099960
C     -1.985256   -1.786224   -1.940385
C      3.764717    1.241469   -0.588140
C     -0.938511   -1.089393    0.225623
C     -2.923919   -0.228359   -0.206535
O     -2.294011   -3.014011   -2.545456
O      1.309206   -0.354076   -0.217430
O     -1.547046    0.075462   -0.186045
Si     2.883868   -0.136552    0.357423
H     -2.459735    2.371708    0.716157
H     -3.324295    3.128644   -0.709744
H     -1.874916    2.009641   -0.981028
H      5.341458    2.342980    0.381232
H      5.512470    0.516269    0.507232
H      5.913441    1.378168   -0.997086
H      3.799174    3.361822   -0.612343
H      2.639796    2.614943    0.587676
H      2.240280    2.664965   -1.192299
H      2.822099    0.837166   -2.528866
H      4.243502   -0.201214   -2.068850
H      4.557799    1.471366   -2.561967
H      3.764987   -2.087012   -0.937846
H      3.678209   -2.443813    0.866831
H      4.994899   -1.456399    0.180671
H      2.119554    1.038335    2.373661
H      3.866104    0.730698    2.442990
H      2.780532   -0.631648    2.789661
H     -4.547617    1.702607    2.801836
H     -5.678011    0.699000    0.406116
H     -5.031884    2.352477    0.538718
H     -3.147427   -0.211546    3.235493
H     -1.926357   -2.704919    1.307319
H     -1.380228   -1.267673    2.302739
H      0.079285   -1.891713   -1.474471
H     -0.902837   -3.068022   -0.545564
H     -3.833940   -2.087734   -0.916515
H     -3.864045   -0.732926   -2.059588
H      0.867466   -1.878295    1.021501
H      0.442826   -0.281870    1.667691
H     -4.160803    1.035041   -1.420462
H     -3.928634   -1.718093    0.988460
H     -1.634689   -1.062823   -2.701169
H     -1.484806   -3.466085   -2.872395
