57

C     -2.594909    2.470603    0.751050
C      5.098431    0.957463    0.028400
C      3.059873    1.526596   -1.184131
C      3.197993    1.981537    1.273843
C      3.531959   -1.767846   -0.934217
C      3.812457   -1.329922    2.033748
C     -3.428938    1.997970   -1.885503
C     -4.377650    1.754724   -0.750740
C     -2.638763    0.976855   -2.203950
C     -1.592598   -1.171028   -1.531338
C     -1.186429   -2.145132    0.738795
C     -3.461579   -1.076151    0.799451
C      0.570346   -0.946338   -0.441383
C     -3.522809    1.321813    0.421972
C     -2.797285   -0.266035   -1.398766
C     -2.664529   -2.335069    0.832808
C      3.577684    1.045323    0.144023
C     -0.902236   -1.000911   -0.209702
C     -2.785349    0.064533    0.075987
O     -3.146383   -3.239599   -0.112841
O      1.298323   -0.752348    0.728730
O     -1.423941    0.144771    0.354072
Si     2.966309   -0.689311    0.475628
H     -2.968572    3.015343    1.641804
H     -1.554833    2.163017    0.909696
H     -2.585244    3.233851   -0.075689
H      5.387199    0.553354   -0.961044
H      5.557599    1.948399    0.199519
H      5.447130    0.226112    0.789287
H      3.767637    2.295380   -1.561555
H      2.058391    1.956388   -1.011458
H      3.018303    0.658936   -1.870153
H      3.923622    1.825462    2.093624
H      2.151562    1.767418    1.573751
H      3.262892    3.017450    0.883901
H      3.160524   -1.376132   -1.901519
H      3.278209   -2.834953   -0.769072
H      4.643265   -1.716160   -0.960296
H      3.772625   -0.572442    2.829252
H      3.185674   -2.199293    2.386333
H      4.841575   -1.626750    1.816204
H     -3.381537    2.931861   -2.414247
H     -5.015917    0.871237   -1.020097
H     -4.991680    2.632398   -0.528248
H     -1.907281    1.035094   -3.012581
H     -1.867354   -2.204120   -1.772166
H     -0.971543   -0.783107   -2.376426
H     -0.800131   -1.836977    1.739589
H     -0.701186   -3.086109    0.406310
H     -3.725465   -0.695762    1.812540
H     -4.422602   -1.271313    0.275085
H      0.838691   -0.114970   -1.129371
H      0.865061   -1.879553   -0.969635
H     -4.215587    1.169252    1.295037
H     -3.704700   -0.826803   -1.689226
H     -2.864294   -2.820957    1.833079
H     -4.072012   -2.978048   -0.344270
