74

C      0.789855    3.572779    1.913210
C     -6.300469   -2.723469   -0.647758
C     -5.132334   -1.176963   -2.197004
C     -6.589486   -0.311104   -0.379795
C     -3.277154   -3.047644    0.134572
C     -4.752655   -1.334518    2.134502
C      9.019552   -3.235913   -0.378645
C      8.191155   -2.938018   -1.449983
C      8.689324   -2.806603    0.882512
C      7.034852   -2.209341   -1.244513
C      7.532191   -2.075899    1.096149
C     -1.070051    4.171572    0.359050
C     -1.103074    1.245858   -1.614502
C     -0.251505    2.260734   -1.490750
C     -0.898836    5.625094    0.738012
C      0.540825   -0.387720   -0.906671
C      1.695692    1.591899   -0.102276
C      5.476499   -0.990712    0.317719
C     -1.805155   -0.686669   -0.210939
C      3.264503   -1.297106    0.898128
C      0.277461    3.495360    0.514449
C      6.710151   -1.781781    0.025075
C      1.634111    0.077798    0.058250
C     -5.600025   -1.369592   -0.779866
C     -0.734676    0.310088   -0.518094
C      0.302840    2.135041   -0.101734
O     -2.118136    6.314185    0.615406
O      4.474002   -1.895017    0.605327
O      2.840086   -0.533612   -0.200524
O     -3.033674   -0.144830    0.042573
O     -0.524602    1.212914    0.536691
Si    -4.135406   -1.410819    0.373012
H     -0.069673    3.937525    2.551410
H      1.578111    4.339764    2.041823
H      1.094596    2.578869    2.343160
H     -7.394077   -2.630432   -0.758367
H     -5.912903   -3.379093   -1.457926
H     -6.105480   -3.168082    0.363856
H     -5.046874   -2.174247   -2.691605
H     -5.811455   -0.558357   -2.797137
H     -4.107254   -0.761717   -2.172638
H     -6.162530    0.708265   -0.526611
H     -7.444357   -0.379709   -1.096590
H     -6.951300   -0.480419    0.638410
H     -2.411126   -3.156644    0.844830
H     -3.953652   -3.887114    0.368868
H     -2.913703   -3.168428   -0.914302
H     -5.156133   -2.331985    2.381171
H     -3.875079   -1.146736    2.789979
H     -5.544429   -0.563233    2.256630
H      9.926999   -3.807950   -0.540927
H      8.442650   -3.269501   -2.435314
H      9.325026   -3.032055    1.721752
H      6.367274   -1.962930   -2.073187
H      7.319419   -1.763694    2.101897
H     -1.784113    3.646738    0.997839
H     -1.362801    4.139268   -0.711320
H     -1.900210    1.138710   -2.369785
H     -0.003421    3.016234   -2.218925
H     -0.468899    5.751812    1.744883
H     -0.202503    6.137510    0.040445
H      0.431001   -1.475288   -0.908778
H      0.891288   -0.090029   -1.922989
H      2.276861    1.876873   -1.002308
H      2.233077    1.983493    0.782019
H      5.706251   -0.292652    1.137664
H      5.197145   -0.419265   -0.597929
H     -1.894061   -1.362843   -1.080625
H     -1.465973   -1.282740    0.660142
H      2.523949   -2.080010    1.112631
H      3.448746   -0.629648    1.787550
H      0.978063    4.119324   -0.112508
H      1.314948   -0.192863    1.065328
H     -2.259262    6.417289   -0.364105
