65

C      5.557288   -0.762809    1.293411
C      6.881507    1.268700    0.927274
C      6.370745   -0.284521   -0.965702
C      4.408647    2.332381   -1.535084
C      4.069106    2.445702    1.505893
C     -9.034501   -0.869454   -0.170281
C     -8.055323   -1.825392   -0.225357
C     -8.750754    0.457956   -0.060668
C     -6.721367   -1.455032   -0.169474
C     -7.403004    0.822086   -0.004994
C      0.029231   -1.769746   -0.946187
C      0.367282   -0.500838   -1.154723
C     -1.702923   -1.328594    0.684421
C     -0.564738    0.896559    0.675101
C     -4.966945    0.271162    0.000989
C     -0.118539   -3.224781    1.059146
C      1.838787    0.919186    0.261234
C     -3.223026    0.951556   -1.392133
C     -6.425321   -0.129835   -0.059785
C     -1.858513    0.133061    0.362098
C      5.845441    0.337584    0.299078
C     -0.306712   -1.842096    0.504299
C      0.606649    0.082971    0.205625
O     -0.248261   -3.166924    2.443045
O     -4.461939    0.471705   -1.227647
O     -2.131327    0.356799   -0.936846
O      2.987982    0.223264   -0.107519
O      0.671057   -1.031906    1.057697
Si     4.305575    1.331984    0.013154
H      6.542344   -1.067970    1.752942
H      4.897461   -0.380228    2.113002
H      5.133234   -1.663354    0.808513
H      7.910427    0.915376    0.720004
H      6.702417    1.241998    2.019875
H      6.675023    2.279594    0.555073
H      5.720910   -0.120607   -1.839321
H      7.382103    0.157095   -1.174643
H      6.518148   -1.393622   -0.869377
H      5.420116    2.208221   -1.977331
H      4.200684    3.392818   -1.285475
H      3.663270    2.023943   -2.309842
H      4.902103    3.177985    1.490228
H      4.138332    1.851612    2.431742
H      3.123287    3.022300    1.442538
H    -10.063848   -1.220063   -0.218482
H     -8.248369   -2.886326   -0.312282
H     -9.521535    1.207681   -0.017533
H     -5.944002   -2.204235   -0.212440
H     -7.191878    1.880486    0.082107
H      0.004830   -2.586470   -1.689601
H      0.453978    0.008740   -2.091359
H     -2.032564   -1.573105    1.715532
H     -2.365096   -1.895622   -0.002549
H     -0.535025    1.871168    0.192394
H     -0.503416    0.966518    1.780334
H     -4.419467   -0.599754    0.461196
H     -4.921641    1.108356    0.698723
H     -0.802055   -3.973093    0.608255
H      0.910127   -3.575010    0.838226
H      1.983291    1.263028    1.289182
H      1.683677    1.790377   -0.407466
H     -3.042806    1.118453   -2.537476
H     -3.286149    2.055629   -1.052531
H     -2.636899    0.548244    1.019912
H     -0.417117   -4.060891    2.791103
