40

C      3.317344    1.320169    1.129839
C      1.221274   -1.773655   -1.337671
C      2.503739   -1.578097   -0.525349
C      0.303333   -2.750991   -0.797048
C      2.291852   -0.943691    0.801814
C     -0.804058   -2.387294   -0.189228
C     -2.608386   -0.993332    0.553490
C     -2.979187    0.408849    0.969235
C     -0.552754    1.846793   -0.041704
C      2.080448    0.553252    0.717764
C     -1.169383   -1.008474   -0.024017
C     -2.956017    1.270492   -0.275482
C     -1.557902    1.092926   -0.887732
C      0.725339    1.928347   -0.745452
O     -3.150453    2.611335    0.021643
O      0.928745    2.908786   -1.531577
O      1.690489    0.972387   -0.568841
O     -1.265796   -0.209140   -1.127894
H      4.187532    0.834629    0.656810
H      3.379817    1.312232    2.226161
H      3.178076    2.365828    0.775970
H      1.642673   -2.239304   -2.298865
H      0.836470   -0.830243   -1.721622
H      3.207162   -0.991518   -1.181791
H      3.017392   -2.549620   -0.366407
H      0.572004   -3.825664   -0.913400
H      1.505082   -1.482293    1.335083
H      3.257904   -1.074263    1.378090
H     -1.420548   -3.231997    0.178913
H     -3.266448   -1.302301   -0.264050
H     -2.695211   -1.731056    1.370288
H     -4.015557    0.381254    1.324129
H     -2.293859    0.798136    1.740742
H     -0.523862    1.498417    0.994137
H     -0.969035    2.898180    0.028785
H      1.300604    0.791984    1.465763
H     -0.602854   -0.514986    0.822232
H     -3.667457    0.881529   -1.008889
H     -1.604633    1.630837   -1.858644
H     -3.043877    3.111554   -0.825225
