51

C      7.404589   -0.175738   -1.004898
C     -3.793191   -2.253078    0.136430
C     -5.494623   -0.580733   -0.447948
C     -4.422990   -0.531318    1.769791
C     -3.114551    2.066793    0.276072
C     -3.102569    0.373035   -2.262483
C      2.843249    1.490239   -0.119920
C      1.739354    1.771666    0.536175
C      3.394222   -0.583114    0.980564
C      0.985459   -0.218816    1.798548
C      3.612522   -0.317562   -1.544890
C     -0.496342    0.933906    0.123887
C      5.979149   -0.670208   -0.911688
C      2.461846   -0.222377    2.124536
C     -4.193270   -0.817779    0.288444
C      2.874513   -0.003070   -0.276275
C      0.900753    0.544037    0.482653
O      5.799220   -1.699066   -0.228268
O      2.894740    0.039381    3.210584
O      4.947558   -0.072813   -1.508078
O     -1.332136   -0.186023   -0.007165
O      1.498185   -0.276390   -0.457971
Si    -2.913736    0.345102   -0.418638
H      8.104660   -0.988235   -1.210299
H      7.624995    0.277261   -0.017788
H      7.471614    0.640078   -1.746022
H     -2.697056   -2.412765    0.123402
H     -4.243608   -2.730893   -0.782077
H     -4.204689   -2.863466    0.987241
H     -5.659692    0.521968   -0.459732
H     -5.409596   -1.008547   -1.469176
H     -6.355277   -1.104883    0.044665
H     -5.323234    0.102800    1.930029
H     -4.583103   -1.497016    2.331947
H     -3.548778   -0.029178    2.224700
H     -2.877653    2.006065    1.365732
H     -4.166647    2.384808    0.101235
H     -2.376177    2.709503   -0.223767
H     -3.225662   -0.655461   -2.654427
H     -3.981149    0.966407   -2.578546
H     -2.213315    0.821664   -2.757962
H      3.614864    2.192153   -0.495167
H      1.490448    2.701693    1.015949
H      3.488777   -1.693520    0.966018
H      4.365451   -0.168726    1.309249
H      0.729174   -1.268999    1.570746
H      0.386284    0.213763    2.595656
H      3.396047   -1.408233   -1.785411
H      3.094782    0.203473   -2.408117
H     -0.939965    1.667829    0.823984
H     -0.433442    1.464384   -0.859687
