40

C     -3.213649   -1.579057    1.032404
C     -0.832146    2.172827   -1.028436
C     -2.197960    1.522222   -0.906615
C     -0.196998    2.384773    0.283268
C     -2.312460    0.634823    0.299017
C      0.983658    1.901739    0.616843
C      3.115164    0.833048    0.082115
C      3.288655   -0.420456    0.866387
C     -0.033725   -2.024324   -0.037279
C     -2.913756   -0.683371   -0.147970
C      1.719946    1.101399   -0.372916
C      2.403324   -1.560395    0.371234
C      1.003037   -0.992543    0.272903
C     -0.858216   -1.581074   -1.192657
O      2.876434   -1.892784   -0.911574
O     -0.239498   -1.451678   -2.292767
O     -2.191349   -1.311572   -1.156848
O      1.034299   -0.046608   -0.749982
H     -4.303846   -1.547476    1.317093
H     -2.652734   -1.297529    1.943271
H     -3.029165   -2.650837    0.772476
H     -1.031063    3.200167   -1.454296
H     -0.191713    1.670428   -1.760558
H     -2.380995    0.953836   -1.863830
H     -3.019250    2.294366   -0.891984
H     -0.729603    2.973025    1.021574
H     -3.069654    1.079167    1.009876
H     -1.392723    0.524781    0.875592
H      1.440712    2.070737    1.600594
H      3.856341    0.891001   -0.764088
H      3.411002    1.690225    0.753685
H      3.077603   -0.308531    1.943865
H      4.359124   -0.740351    0.790111
H     -0.688480   -2.126439    0.842315
H      0.421527   -3.017450   -0.248680
H     -3.917897   -0.412485   -0.590717
H      1.797227    1.727535   -1.309663
H      2.473203   -2.398053    1.068674
H      0.808367   -0.477849    1.247993
H      3.327257   -1.105233   -1.330429
