51

C      0.630191   -2.655630   -0.122854
C      1.148086   -2.048184    2.165909
C     -4.572467    0.200142   -1.465559
C      5.349683    1.824392   -1.151106
C      4.922700    0.522110   -1.008338
C     -4.067473   -1.047808   -0.729466
C     -3.361850    1.142644   -1.515920
C      3.286803    2.641763   -0.193218
C      0.416818    1.422694    1.050944
C     -1.781924   -1.562920    0.197726
C     -1.064774    0.882882   -0.809008
C      4.528978    2.866424   -0.742973
C      2.851916    1.332611   -0.047166
C      1.612821    0.760746    0.487589
C      3.671272    0.305405   -0.454112
C     -0.679804   -0.838966    0.985075
C      1.733222   -0.550460    0.383661
C     -3.059714    0.422682    0.998240
C      0.650525   -1.459699    0.836405
C     -0.781120    0.613111    0.675490
C     -2.810951   -0.528435   -0.127776
Br     5.148604    4.662838   -0.953665
N      2.985834   -0.896467   -0.190909
N     -1.992647    1.097258    1.365504
N     -2.266123    0.257456   -1.248529
O     -4.279843    0.590898    1.605383
H     -0.201425   -3.348402    0.100287
H      1.619839   -3.172096   -0.027048
H      0.570419   -2.332931   -1.180178
H      0.869147   -1.311908    2.949101
H      0.676675   -3.023481    2.370722
H      2.261951   -2.135564    2.143068
H     -5.326610    0.679458   -0.802689
H     -4.940857   -0.039435   -2.463674
H      6.313020    2.061522   -1.575103
H      5.566034   -0.289011   -1.328047
H     -4.810338   -1.406437    0.009960
H     -3.820622   -1.784666   -1.494956
H     -3.297999    1.655761   -2.489162
H     -3.416234    1.889115   -0.682727
H      2.634474    3.455590    0.130637
H      0.505898    1.600596    2.141024
H      0.315265    2.412092    0.555092
H     -1.387645   -1.945200   -0.777404
H     -2.161825   -2.422741    0.768126
H     -0.214653    0.466341   -1.402533
H     -1.125025    1.977351   -0.928222
H     -1.003436   -0.961025    2.061853
H      2.866103   -1.471518   -1.075714
H      3.579103   -1.476707    0.441392
H     -4.290021    0.965808    2.564869
