51

C      0.627407   -0.671987   -2.783789
C      0.268378   -2.140766   -0.855373
C     -4.956425   -0.313978    0.657337
C      5.980717    0.907307    0.788902
C      5.353197    0.266724   -0.270764
C     -4.306082   -0.004170   -0.698780
C     -3.829340   -0.934096    1.489533
C      3.880805    1.276460    1.829780
C      0.645583    0.683332    1.312526
C     -1.897063   -0.077823   -1.422924
C     -1.444049   -0.630285    1.324123
C      5.252958    1.411739    1.836905
C      3.236928    0.634152    0.769822
C      1.835051    0.348196    0.492836
C      3.985769    0.145013   -0.253947
C     -0.538459    0.239153   -0.853401
C      1.803527   -0.281098   -0.650407
C     -2.681401    1.503730    0.326083
C      0.518347   -0.736291   -1.256731
C     -0.644565    0.464244    0.621376
C     -2.889556    0.168787   -0.318717
Cl     6.004003    2.223064    3.186662
N      3.119174   -0.450382   -1.189350
N     -1.465717    1.678584    0.790499
N     -2.683369   -0.913622    0.649764
O     -3.660695    2.450736    0.423193
H     -0.192909   -1.294835   -3.188102
H      1.601397   -1.105862   -3.073928
H      0.521548    0.381934   -3.134778
H      0.875993   -2.385390    0.059121
H      0.708788   -2.809365   -1.652739
H     -0.774688   -2.438810   -0.757963
H     -5.206806    0.645218    1.181019
H     -5.819749   -0.970017    0.563919
H      7.072804    1.013959    0.792712
H      5.976802   -0.110576   -1.068522
H     -4.712183    1.005918   -0.992390
H     -4.512397   -0.769924   -1.442986
H     -4.126586   -2.012706    1.626305
H     -3.715502   -0.460480    2.462072
H      3.313346    1.676219    2.658718
H      0.684371    0.091385    2.254115
H      0.778016    1.756426    1.633470
H     -2.007538   -1.136499   -1.729847
H     -2.121476    0.526266   -2.330868
H     -0.876860   -1.548149    1.468017
H     -1.638023   -0.219319    2.358661
H     -0.241217    1.231713   -1.306230
H      3.182342   -0.006285   -2.139596
H      3.297371   -1.462002   -1.333565
H     -3.581968    3.154460    1.148228
