51

C      0.971161   -3.044984    0.247269
C      0.258174   -2.021441   -1.844361
C     -4.461834    1.463221   -0.637121
C     -4.145687   -0.016102   -0.831989
C     -3.156423    2.082068   -0.116798
C      3.481296    1.871148    1.254980
C      4.791322    0.829532   -0.954036
C      0.626201    0.256112    1.729051
C     -1.956014   -1.235413   -0.626251
C     -0.914842    1.212702    0.068866
C      2.955898    0.844862    0.527685
C      1.695267    0.092504    0.692720
C      4.698537    2.410018    0.885676
C      5.341726    1.884622   -0.214525
C      3.591579    0.314275   -0.572313
C     -0.749336   -1.282185    0.322514
C      1.638109   -0.802911   -0.262303
C     -2.959035   -0.090813    1.345651
C      0.491770   -1.721469   -0.373514
C     -0.678575    0.040109    1.010808
C     -2.824412   -0.129128   -0.152380
Cl     5.389990    3.724095    1.802008
Cl     6.882747    2.594557   -0.651093
N      2.788575   -0.708842   -1.074133
N     -1.808255    0.077494    1.957544
N     -2.188160    1.132854   -0.567218
O     -4.151368   -0.217538    2.001429
H      1.714825   -3.535652   -0.392846
H      0.102636   -3.656357    0.499705
H      1.460836   -2.746517    1.203003
H      0.245380   -1.132179   -2.474640
H      1.161941   -2.616681   -2.168169
H     -0.597464   -2.708426   -1.983793
H     -4.804796    1.938394   -1.559338
H     -5.231062    1.503009    0.181658
H     -4.008879   -0.179867   -1.902692
H     -4.931709   -0.658509   -0.385049
H     -3.201059    2.088044    1.006562
H     -3.039372    3.093526   -0.537659
H      2.979668    2.279433    2.111423
H      5.365404    0.478224   -1.804594
H      0.774341   -0.380588    2.600233
H      0.629370    1.326544    2.079648
H     -2.443064   -2.220714   -0.659816
H     -1.621027   -0.973156   -1.669366
H     -0.727878    2.131564    0.627352
H     -0.133259    1.101493   -0.737110
H     -1.042282   -2.036163    1.098730
H      2.553541   -0.604835   -2.087807
H      3.307959   -1.636417   -1.019326
H     -4.122460   -0.413516    3.005725
