51

C      0.817493   -2.885806   -1.029101
C      0.703970   -2.568088    1.371523
C     -4.231207    1.473476    1.504031
C      4.387390    2.662169   -1.246800
C      3.156263    2.104188   -1.507267
C     -3.796569    0.029121    1.774276
C     -3.043210    2.108165    0.768317
C      4.799710    0.895057    0.351930
C      0.300135    0.322780   -1.734289
C     -1.657931   -1.145239    1.123619
C     -0.858405    1.231768    0.207923
C      5.178910    2.029558   -0.312473
C      2.754039    0.938935   -0.831994
C      1.542591    0.143177   -0.896221
C      3.548646    0.321072    0.092609
C     -0.815122   -1.259846   -0.137756
C      1.646185   -0.852582   -0.066886
C     -3.113501   -0.068873   -0.593937
C      0.520473   -1.854455    0.075512
C     -0.839696    0.077659   -0.804350
C     -2.663901   -0.087245    0.829979
Cl     6.763785    2.715623    0.047813
N      2.875376   -0.813143    0.590366
N     -2.149037    0.186158   -1.452529
N     -1.990826    1.206068    1.056840
O     -4.416856   -0.296307   -0.991519
H      1.292740   -2.406658   -1.904006
H     -0.167134   -3.312054   -1.315976
H      1.432387   -3.718572   -0.627675
H      1.134373   -1.896139    2.166105
H      1.412509   -3.431811    1.314342
H     -0.228088   -2.977158    1.801696
H     -4.473843    2.005613    2.426084
H     -5.104283    1.386287    0.811754
H      4.720797    3.557925   -1.752284
H      2.473962    2.547480   -2.233748
H     -3.442084   -0.005302    2.801856
H     -4.622532   -0.681771    1.570537
H     -3.302534    2.139817   -0.316538
H     -2.877902    3.150383    1.116763
H      5.448599    0.409257    1.092509
H      0.292392   -0.341072   -2.603828
H      0.253685    1.357151   -2.082345
H     -1.041017   -0.804990    1.995597
H     -2.137342   -2.122512    1.358237
H      0.094260    1.134057    0.781667
H     -0.760160    2.158745   -0.407291
H     -1.401569   -1.980505   -0.783307
H      3.444428   -1.642619    0.273449
H      2.792422   -0.803936    1.637261
H     -4.652777   -0.335004   -1.975737
