39

C     -0.399561   -2.709743    0.744777
C     -0.355280   -0.497959    1.740692
C     -3.374653    2.588879   -0.509073
C      3.911402    0.479944    1.103694
C     -2.235737    2.661820   -1.272559
C     -3.649784    1.435785    0.192433
C      3.601917   -0.850786    0.945528
C      3.113572    1.403131    0.472270
C     -1.362273    1.599913   -1.349077
C     -2.766746    0.395633    0.100045
C      2.525797   -1.235100    0.177560
C      2.023145    0.991192   -0.304391
C     -1.599509    0.457497   -0.676245
C      1.701316   -0.326137   -0.471956
C     -0.775643   -0.752413   -0.637958
C      0.553850   -0.734966   -1.282631
N     -0.755268   -1.348352    0.686679
O      0.525769   -0.153485   -2.560688
Cl     0.686713    0.000000    0.000000
H      0.438932   -2.941650    1.442769
H     -0.201707   -3.152099   -0.263958
H     -1.271075   -3.298228    1.138335
H      0.562950   -0.763718    2.272171
H     -0.319882    0.557428    1.340981
H     -1.155651   -0.436471    2.537191
H     -4.096514    3.393948   -0.413083
H      4.771986    0.796998    1.717347
H     -2.067308    3.599336   -1.807094
H     -4.553767    1.352193    0.810041
H      4.249644   -1.566835    1.456141
H      3.337013    2.443841    0.582147
H     -0.503333    1.725151   -1.966717
H     -3.025630   -0.501175    0.674572
H      2.319409   -2.293806    0.067296
H      1.463631    1.767088   -0.756415
H     -1.392809   -1.514977   -1.234788
H      0.751817   -1.840332   -1.542377
H      0.009976   -0.731546   -3.153657
H     -0.686713    0.000000    0.000000
