67

C     -2.471820    4.885309   -1.532275
C      4.942540    2.145601    2.387950
C     -3.209123   -0.033455   -0.609590
C      2.088687    1.826222   -1.761471
C     -4.442944    0.547203   -0.662904
C      2.467077    3.161965   -1.605096
C     -0.730152    0.109718   -0.750871
C     -2.213971    2.068615   -1.032750
C     -1.844748   -0.087917    1.975781
C     -0.503733   -1.992295    2.187506
C      1.979729   -3.558564   -0.158808
C     -0.016135   -2.914987   -1.260151
C      3.279837    1.270135    0.181938
C     -2.206171   -1.540782    3.831542
C      0.705397   -5.163365   -1.404106
C     -2.056518    0.700719   -0.791257
C      2.472707    0.851560   -0.891900
C     -0.825609   -0.848883    1.464147
C      1.055987   -2.589995   -0.488254
C     -2.537985   -0.409309    3.135993
C     -1.173843   -2.334731    3.342756
C      1.804773   -4.862928   -0.621262
C     -0.226642   -4.209097   -1.742635
C     -0.150017   -0.574127    0.193670
C     -4.553251    1.911389   -0.905644
C      3.250826    3.541990   -0.553802
C     -3.431375    2.690455   -1.094220
C      3.659766    2.579744    0.348483
C      1.214612   -1.143952   -0.000274
C      2.071372   -0.535680   -1.042944
O     -3.547074    0.424297    3.557981
O     -0.863309   -3.472548    4.074093
O      2.739802   -5.831036   -0.284383
O     -1.343229   -4.457436   -2.522586
O     -5.796658    2.543289   -0.967748
O      3.618418    4.870757   -0.411478
O      1.788499   -0.861765   -2.357806
O     -3.576876    4.053819   -1.335315
O      4.451820    3.011021    1.397128
H     -2.827778    5.950583   -1.449851
H     -2.070474    4.683355   -2.556108
H     -1.725157    4.639052   -0.738113
H      5.129213    2.696342    3.356778
H      4.226878    1.345662    2.664165
H      5.908092    1.653929    2.077607
H     -3.113897   -1.086830   -0.423780
H      1.472631    1.656952   -2.640164
H     -5.369890   -0.036171   -0.517997
H      2.154010    3.932825   -2.306094
H     -0.096692    0.209339   -1.671689
H     -1.327483    2.661838   -1.177665
H     -2.130644    0.862800    1.551584
H      0.298203   -2.620717    1.830310
H      2.825157   -3.279952    0.456059
H     -0.745823   -2.193550   -1.532378
H      3.614887    0.538210    0.902458
H     -2.737510   -1.794472    4.727910
H      0.566469   -6.190497   -1.769213
H      1.746042   -1.179847    0.950903
H      3.091349   -1.117668   -0.892342
H     -4.525624    0.313010    3.266430
H     -1.299678   -4.350122    3.900334
H      3.541423   -5.989153   -0.884250
H     -1.359076   -4.373701   -3.525257
H     -6.608342    1.957264   -0.827410
H      3.322311    5.557558   -1.061648
H      2.170737   -0.216997   -3.000015
