67

C     -2.539127   -4.543129    1.882832
C      4.719321   -4.134782    0.900806
C     -2.170408    0.742042    2.612485
C      2.966226    0.493795   -0.876140
C     -2.478724   -0.074766    3.674586
C      4.250133    0.533625   -0.435508
C      0.878624    3.214828    0.838429
C     -0.074702    3.324832   -1.298694
C     -2.055309   -1.129811    1.213225
C      2.870993   -1.790521   -0.338178
C      0.964439    5.279679   -0.324655
C     -1.818115   -0.396667   -3.094310
C     -4.067728   -0.182745   -2.411560
C     -1.951589    0.212371    1.351949
C      2.219018   -0.687945   -0.841988
C      0.214841    2.566539   -0.177182
C      1.263616    4.539415    0.807262
C      0.291244    4.654832   -1.373955
C     -3.152060   -0.567987   -3.360878
C     -1.322564    0.151061   -1.906106
C     -2.583601   -1.421737    3.543818
C      4.888682   -0.556961    0.061622
C     -3.626019    0.359479   -1.230686
C     -2.373886   -2.011133    2.292077
C      4.201429   -1.763385    0.121658
C     -1.618921    1.071757    0.206678
C     -0.162899    1.120223   -0.114861
C     -2.252446    0.517058   -0.998154
C      0.039288    0.419148   -1.435190
C      0.837435   -0.832959   -1.269997
O      1.933516    5.142332    1.863497
O     -0.007957    5.400020   -2.505649
O     -3.600651   -1.121160   -4.567241
O     -2.901415   -2.235988    4.653112
O      6.209229   -0.502424    0.515723
O     -4.536238    0.759801   -0.249948
O      0.738764   -1.763879   -2.267826
O     -2.469520   -3.285212    2.144178
O      4.765565   -2.864460    0.593911
H     -2.697828   -5.236836    2.789975
H     -3.401883   -4.823122    1.165917
H     -1.638580   -5.036721    1.399668
H      5.500755   -4.505873    1.644561
H      3.757244   -4.377631    1.461486
H      4.703690   -4.872789    0.038798
H     -2.093802    1.790223    2.730943
H      2.514012    1.361087   -1.267690
H     -2.641453    0.395197    4.651523
H      4.818719    1.472272   -0.472327
H      1.114176    2.645266    1.726608
H     -0.591270    2.920389   -2.174054
H     -1.910310   -1.631495    0.281385
H      2.353721   -2.738128   -0.282700
H      1.260777    6.333229   -0.373128
H     -1.084238   -0.695108   -3.828077
H     -5.132172   -0.305088   -2.582633
H     -2.041073    2.099648    0.387035
H      0.467366    0.707884    0.711406
H      0.482757    1.110467   -2.198302
H      0.330213   -1.356543   -0.367988
H      2.198135    6.103007    1.808075
H      0.573650    5.496091   -3.311847
H     -2.914668   -1.395961   -5.246615
H     -3.058934   -1.808003    5.567129
H      6.668364   -1.314254    0.885846
H     -5.504289    0.646628   -0.421989
H      1.478437   -1.619022   -2.922150
