38

C      2.782092   -2.398399    0.024533
C     -2.143706    0.092366   -2.179434
C     -3.958838   -0.064628   -0.461283
C      1.810873    0.725353    1.946113
C      2.538649   -0.310654    1.205208
C      1.591843    2.006168    1.177408
C      0.525338   -1.672784    0.977514
C     -0.336214   -1.352001   -0.201189
C     -0.403864    1.443550   -0.335632
C      1.545221    2.467321   -1.221524
C      1.940684   -1.395046    0.775803
C      0.759366    1.890212   -0.042891
C     -1.583761   -0.660635    0.264081
C     -1.592808    0.804218    0.262225
C     -2.477756    0.000704   -0.710929
O      1.087932    2.497808   -2.368473
H      3.147066   -3.112024    0.791866
H      2.170951   -2.967511   -0.690841
H      3.667923   -1.917766   -0.419774
H     -1.105481   -0.143187   -2.430108
H     -2.433219    1.096202   -2.608323
H     -2.789967   -0.639456   -2.700796
H     -4.266607    0.489982    0.446160
H     -4.229075   -1.146741   -0.405725
H     -4.544077    0.355327   -1.306574
H      2.442615    0.943853    2.873940
H      0.847512    0.440439    2.369368
H      3.629364   -0.169057    1.004478
H      2.595359    2.468655    0.981091
H      1.195295    2.756033    1.934371
H      0.440949   -2.805303    1.116307
H      0.070687   -1.294998    1.910610
H     -0.646852   -2.274388   -0.730984
H      0.165234   -0.727253   -0.963159
H     -0.650413    1.579874   -1.438778
H      2.525619    2.842726   -0.967865
H     -2.078169   -1.163287    1.114849
H     -2.239763    1.314326    1.008359
