51

C      0.491728   -2.614131   -0.971990
C      0.103657   -1.932836    1.328281
C     -5.022017    0.268224    0.763694
C     -4.344610   -0.279558   -0.501136
C     -3.887797    0.945395    1.546155
C      4.029955    1.991422    0.019691
C      5.360652   -0.367729   -0.418493
C      0.718166    1.461660    0.311816
C     -1.957106   -1.038474   -0.756144
C     -1.481810    0.856811    1.302515
C      3.321933    0.821999   -0.048488
C      1.872285    0.547580    0.072946
C      5.400410    1.973760   -0.131855
C      6.093971    0.802314   -0.353040
C      3.987087   -0.357949   -0.267571
C     -0.577067   -0.486719   -0.618276
C      1.755042   -0.752995   -0.077531
C     -2.547393    1.326714   -1.124001
C      0.421224   -1.438515   -0.020538
C     -0.600646    0.854998    0.042652
C     -2.915862    0.091957   -0.378566
Cl     6.308199    3.467985   -0.045043
Cl     7.844945    0.792900   -0.544920
N      3.011900   -1.385703   -0.286662
N     -1.323849    1.744383   -0.890249
N     -2.749046    0.278688    1.046047
O     -3.403561    1.985267   -1.987028
H      0.868759   -3.525424   -0.470206
H      1.007312   -2.367513   -1.908349
H     -0.571963   -2.846940   -1.253976
H     -0.953349   -1.881398    1.627457
H      0.678703   -1.337409    2.089004
H      0.424446   -2.999465    1.500521
H     -5.791391    1.006656    0.537972
H     -5.426377   -0.601125    1.328684
H     -4.778664    0.307125   -1.353768
H     -4.529052   -1.362460   -0.601173
H     -3.906462    2.028318    1.426382
H     -4.042349    0.643619    2.615161
H      3.467198    2.906310    0.194697
H      5.923640   -1.278845   -0.593157
H      0.908402    2.399835   -0.267514
H      0.736960    1.808183    1.387264
H     -2.181797   -1.880371   -0.093829
H     -2.199886   -1.348829   -1.799959
H     -0.933788    0.452663    2.169400
H     -1.637336    1.952146    1.532920
H     -0.206912   -0.302516   -1.674441
H      3.206863   -2.111692    0.462205
H      3.041127   -1.882713   -1.216987
H     -3.014472    2.664397   -2.650572
