67

C     -2.700462    4.044845   -1.885741
C      3.790473    2.852482    1.685610
C     -0.326677    1.914572    2.042872
C      3.172767   -1.110084   -1.266913
C     -0.108289    3.265513    2.084478
C      4.490746   -1.164607   -0.816220
C     -1.324815   -3.127688    0.901082
C      0.621334   -2.762410    2.228082
C     -1.605090    2.201174    0.093294
C      2.852552    0.870238   -0.026337
C     -0.558289   -4.872186    2.354819
C     -1.825558   -1.240052   -2.545939
C     -3.992071   -0.483299   -1.895370
C     -1.082826    1.356616    1.040831
C      2.335638   -0.087873   -0.875447
C     -0.292729   -2.298332    1.291345
C     -1.451929   -4.392816    1.426374
C      0.464867   -4.031356    2.732603
C     -3.152524   -1.025837   -2.828327
C     -1.339794   -0.900592   -1.301803
C     -0.619739    4.135558    1.146837
C      4.967038   -0.180702    0.035262
C     -3.483683   -0.152552   -0.660601
C     -1.377201    3.579140    0.143052
C      4.142364    0.844682    0.433864
C     -1.349181   -0.082615    0.918456
C     -0.128724   -0.925660    0.743286
C     -2.144971   -0.341471   -0.303095
C      0.039706   -1.040795   -0.736591
C      0.938347   -0.043079   -1.364102
O     -2.522307   -5.190887    0.990805
O      1.371916   -4.511272    3.671716
O     -3.650058   -1.361637   -4.072087
O     -0.392321    5.517399    1.194613
O      6.288059   -0.239977    0.483307
O     -4.330185    0.394421    0.282269
O      0.993182   -0.341188   -2.746433
O     -1.904170    4.448534   -0.816206
O      4.679795    1.801595    1.290701
H     -3.445730    3.262940   -1.604996
H     -2.058705    3.594014   -2.671980
H     -3.306923    4.893963   -2.288048
H      2.914245    2.413813    2.222612
H      4.305296    3.590040    2.321468
H      3.380075    3.394217    0.813263
H      0.088679    1.293820    2.786511
H      2.861667   -1.913130   -1.934080
H      0.490047    3.734812    2.871091
H      5.148217   -1.968199   -1.124296
H     -2.037726   -2.743826    0.159853
H      1.451907   -2.117182    2.553522
H     -2.217917    1.888813   -0.756011
H      2.217805    1.667374    0.286397
H     -0.652995   -5.882374    2.778816
H     -1.122639   -1.674642   -3.276092
H     -5.062512   -0.306421   -2.110693
H     -1.981753   -0.382982    1.779211
H      0.781663   -0.507536    1.177564
H      0.397335   -2.058801   -1.059699
H      0.599071    1.004629   -1.323463
H     -2.291959   -5.766791    0.165292
H      1.271331   -4.407964    4.664972
H     -4.026827   -2.284726   -4.241386
H      0.153226    5.933814    1.915019
H      6.913333   -0.973302    0.216531
H     -5.298083    0.540300    0.037892
H      1.044683    0.457525   -3.298688
