66

C      4.246517    0.770774    2.513660
C     -5.287757    1.686575   -1.536848
C      2.774721   -2.563808   -1.406481
C     -2.627568   -2.041706   -2.191709
C      6.764353    1.343039    2.720432
C     -6.416873    2.960996    0.392868
C      2.195977   -1.206193   -1.161955
C     -1.206620   -1.606431   -1.780687
C      3.423237   -3.035195   -0.133679
C     -3.475491   -0.814047   -1.705467
C      6.601367    2.731971    2.226615
C     -7.802424    2.693583   -0.115612
C      5.918502   -0.545295    1.411193
C     -4.893837    1.073606    0.722203
C      5.638244    0.471591    2.173495
C     -5.507697    1.865189   -0.098581
C      5.083344   -1.497301    0.791049
C     -4.011078    0.004222    0.605829
C      0.615923   -0.105399    0.433877
C     -0.344695   -2.632904    0.219861
C      1.599383   -1.196884    0.203464
C     -1.177844   -1.511491   -0.254620
N      0.895983   -2.473541    0.418886
N     -0.644888   -0.271841    0.218670
N      3.750183   -1.803215    0.658851
N     -3.354763   -0.808002   -0.298591
O      5.420413    3.363453    2.586463
O     -7.919837    2.660271   -1.480364
O      5.859161   -2.385563    0.120293
O     -3.647225   -0.393075    1.867501
O      1.042393    1.120302    0.887720
O     -0.908472   -3.907792    0.463074
O      2.659663   -1.187264    1.105119
O     -2.462365   -1.718299    0.248393
H      3.784180   -0.083353    3.042612
H      4.198635    1.584335    3.301806
H      3.626452    1.118450    1.705019
H     -4.214653    1.866941   -1.818090
H     -5.760635    2.616361   -2.024402
H     -5.794221    0.870713   -2.021551
H      3.479017   -2.551609   -2.263520
H      1.917947   -3.255890   -1.602260
H     -2.684756   -2.154261   -3.269016
H     -2.867662   -2.923460   -1.582389
H      7.748591    0.972313    2.397903
H      6.725454    1.345590    3.824120
H     -6.082447    3.945009   -0.000112
H     -6.446444    3.038275    1.477087
H      1.569116   -0.827287   -1.966964
H      3.079844   -0.499983   -1.122380
H     -1.114164   -0.571760   -2.158250
H     -0.432631   -2.237934   -2.200799
H      2.854391   -3.748279    0.456119
H      4.375419   -3.551914   -0.427182
H     -2.981181    0.054239   -2.175446
H     -4.508404   -0.982255   -2.081976
H      7.414622    3.345768    2.720080
H      6.822274    2.844821    1.140393
H     -8.197986    1.732291    0.337116
H     -8.483581    3.530110    0.235812
H      7.046612   -0.662146    1.228665
H     -5.170838    1.347138    1.813011
H      5.235911    4.044753    1.877919
H     -7.964954    3.580570   -1.858675
H      0.445004    1.787710    1.356377
H     -0.418846   -4.615580    0.960967
