66

C      6.903241   -0.675684    0.093520
C     -6.775035    2.558209    0.454412
C      3.411363   -2.421614    0.126890
C     -2.539688   -2.152308   -1.039509
C      7.783993    1.649263   -0.326385
C     -8.244070    0.850032   -0.739234
C      2.299912   -1.545376   -0.396159
C     -1.461832   -1.128601   -1.329510
C      4.060862   -1.792607    1.355633
C     -3.774568   -1.366737   -0.683325
C      8.085297    1.343452   -1.766760
C     -9.336548    0.747200    0.260812
C      5.559034    1.317532    0.515128
C     -5.852045    0.467479   -0.310531
C      6.650701    0.756263    0.124555
C     -6.925147    1.247469   -0.208818
C      4.362766    0.751165    0.998541
C     -4.532873    0.798053    0.180227
C      0.502091   -1.515322    1.200697
C     -0.125421    0.653981   -0.336130
C      1.588824   -0.733534    0.620939
C     -1.158126   -0.359922   -0.041381
N      1.082907    0.475244   -0.038362
N     -0.698034   -1.333272    0.894522
N      3.756880   -0.415006    1.307028
N     -3.471864   -0.136129   -0.000119
O      9.143817    2.181911   -2.199303
O     -9.651331    1.882551    0.954182
O      3.513961    1.826681    1.225478
O     -4.280686    1.893809    0.769870
O      0.808040   -2.505129    2.133085
O     -0.491417    1.859311   -0.968236
O      2.369509   -0.255672    1.671440
O     -2.293940    0.202573    0.490246
H      7.862077   -0.889849   -0.453858
H      7.021130   -1.045766    1.152133
H      6.159659   -1.277698   -0.410928
H     -7.747272    3.074491    0.492324
H     -5.999671    3.193785   -0.047508
H     -6.417993    2.443132    1.512785
H      4.175386   -2.510552   -0.658731
H      3.065831   -3.444199    0.375032
H     -2.198548   -2.795171   -0.177376
H     -2.714477   -2.738118   -1.951425
H      7.564377    2.708482   -0.245578
H      8.653954    1.412114    0.337796
H     -8.201694   -0.117291   -1.293208
H     -8.506151    1.618988   -1.524401
H      1.545332   -2.267873   -0.829652
H      2.609013   -0.920812   -1.269097
H     -1.855716   -0.406443   -2.065752
H     -0.554537   -1.597395   -1.751314
H      3.539243   -2.268841    2.276422
H      5.082534   -2.069576    1.505055
H     -4.416314   -2.047223   -0.057663
H     -4.325360   -1.194130   -1.635272
H      8.310327    0.299036   -1.933963
H      7.215638    1.666397   -2.402561
H     -9.113769   -0.126117    0.922446
H    -10.259914    0.422449   -0.302652
H      5.602888    2.484677    0.445077
H     -6.007257   -0.481592   -0.799791
H      9.951187    1.795824   -1.743092
H    -10.528386    2.277042    0.634447
H      0.063065   -2.970473    2.666656
H      0.154844    2.647434   -1.002454
