33

C     -3.675281    1.361985    1.092484
C      3.784890    0.917525    0.757376
C     -2.870264    1.748972    0.031690
C     -3.443207    0.104326    1.605895
C      2.806353    1.706692    0.220307
C      3.669459   -0.445724    0.629999
C     -1.895679    0.914484   -0.472942
C     -2.477107   -0.720938    1.104596
C      1.721732    1.140942   -0.438311
C      2.604672   -0.988812   -0.015996
C     -1.662993   -0.328274    0.031188
C      1.578001   -0.220898   -0.582083
C     -0.678080   -1.288434   -0.399970
C      0.428486   -0.868866   -1.277994
N     -0.065653   -1.901199    0.789424
O      0.078383   -0.247764   -2.463275
Cl     0.684114    0.000000    0.000000
H     -4.443035    1.990983    1.507014
H      4.630044    1.370549    1.271093
H     -3.045928    2.736409   -0.378178
H     -4.083958   -0.192280    2.443300
H      2.873045    2.781821    0.306534
H      4.439748   -1.077655    1.052268
H     -1.310318    1.256458   -1.286263
H     -2.364501   -1.695016    1.571363
H      0.968223    1.782325   -0.852123
H      2.521560   -2.065454   -0.111886
H     -1.238444   -2.142589   -0.884302
H      0.886007   -1.846939   -1.656042
H     -0.074788   -1.241660    1.599226
H     -0.540027   -2.766799    1.073649
H      0.878662    0.225829   -2.805096
H     -0.684114    0.000000    0.000000
