33

C     -3.609905    0.108859    1.678623
C      3.700884   -0.340721    1.404299
C     -3.646600    1.116578    0.741769
C     -2.578121   -0.799945    1.626897
C      3.641253   -1.302535    0.420897
C      2.683770    0.581211    1.468317
C     -2.657719    1.212876   -0.238962
C     -1.593473   -0.683451    0.630764
C      2.597413   -1.336201   -0.465752
C      1.620444    0.535717    0.554445
C     -1.620666    0.303683   -0.295294
C      1.557041   -0.417858   -0.424469
C     -0.610894    0.465495   -1.340017
C      0.475885   -0.525464   -1.397926
N     -0.085704    1.814042   -1.402268
O      0.033477   -1.871701   -1.397359
Cl     0.689566    0.000000    0.000000
H     -4.375349    0.008042    2.462862
H      4.543225   -0.328479    2.105116
H     -4.466167    1.824030    0.796938
H     -2.562328   -1.584744    2.367992
H      4.465111   -2.025460    0.392383
H      2.725347    1.337464    2.237207
H     -2.755839    2.041595   -0.948386
H     -0.823134   -1.410897    0.650123
H      2.580670   -2.107463   -1.228944
H      0.855023    1.264240    0.645821
H     -1.178696    0.363869   -2.321193
H      0.943617   -0.426180   -2.428847
H      0.106254    2.126559   -2.375417
H     -0.644339    2.492815   -0.850749
H      0.679520   -2.435973   -1.890971
H     -0.689566    0.000000    0.000000
