48

C     -5.203778    0.995032    2.164632
C     -2.125094   -3.470905   -0.172598
C     -5.924012    2.882307   -1.440366
C      2.207183   -0.960430   -1.295129
C      2.616021   -1.597676    0.972533
C      3.371568   -0.194616   -1.262017
C      3.781163   -0.820944    0.980254
C      7.610246    2.313504   -0.245978
C      6.786227    2.345380    0.848831
C      0.612857   -2.466022   -0.192771
C      6.206698    0.699931   -1.262138
C     -4.557270    0.237701    1.020493
C      1.847934   -1.657007   -0.157880
C      4.153580   -0.124378   -0.132254
C      7.336104    1.483741   -1.333170
C      5.341985    0.701674   -0.168955
C      5.675259    1.549033    0.875427
C     -0.535769   -1.567836    0.098757
C     -5.061763    0.360072   -0.249783
C     -2.955850   -1.168144    0.330201
F      8.156791    1.449228   -2.432856
F      4.820105    1.546430    1.954062
N     -7.539823    1.260869    0.116689
N     -3.510243   -0.563188    1.119520
N     -1.842395   -2.091486    0.080342
O     -0.357033   -0.360024    0.354627
O     -6.898511    0.453669   -2.111252
S     -3.951388   -0.724288   -1.235346
S     -6.381430    1.247270   -0.916812
H     -4.874367    0.625356    3.142735
H     -4.854252    2.041113    2.058611
H     -6.301828    0.914563    2.125814
H     -2.984126   -3.866668    0.407057
H     -2.239517   -3.692441   -1.263150
H     -1.231299   -4.049736    0.148234
H     -5.109063    3.250938   -0.774458
H     -5.591102    2.895128   -2.497315
H     -6.784862    3.541857   -1.338324
H      1.583263   -1.020590   -2.185766
H      2.353077   -2.142579    1.891801
H      3.644915    0.354184   -2.170237
H      4.355231   -0.808575    1.904022
H      8.487088    2.930169   -0.290257
H      7.011147    2.985715    1.668369
H      0.632316   -3.267328    0.570421
H      0.423196   -2.926425   -1.184649
H      5.964584    0.041839   -2.090964
H     -8.163759    0.434585    0.113016
