59

C     -5.434120    3.150005    0.555125
C      8.074246    3.140202    0.525692
C     -5.324546    1.827322   -0.134413
C     -4.952459    0.720156    0.862010
C     -4.877446   -0.546031    0.025840
C     -4.511467   -1.762450    0.859915
C     -3.206309   -1.626899    1.526655
C      2.018095   -2.126958    2.325991
C      3.873948    2.344214   -3.122375
C     -1.972895   -1.411448    0.766844
C      0.978170   -2.315550    1.439402
C      4.914194    2.532028   -2.230875
C      3.040267   -1.261636    2.029816
C      2.886848    1.443992   -2.749742
C      0.901078   -1.663024    0.231190
C      4.944320    1.848622   -1.043128
C     -1.463406   -2.403341   -0.194684
C      2.991185   -0.593939    0.825310
C      2.905074    0.748976   -1.556373
C      1.940015   -0.793685   -0.054850
C      3.949264    0.948692   -0.681540
C     -0.141789   -1.842316   -0.761854
C     -2.332358   -2.544640   -1.371350
C      6.032461    2.043213   -0.087148
N      1.932174   -0.119322   -1.210958
N      3.981390    0.284228    0.483290
O      0.305546   -2.752506   -1.742224
O     -2.230196   -1.646317   -2.277723
O     -3.246791   -3.529757   -1.620305
O      6.088995    1.409695    1.004879
O      7.025645    2.952536   -0.398239
H     -4.439585    3.673247    0.570585
H     -5.751349    3.043114    1.599076
H     -6.196594    3.814535    0.054014
H      8.979460    2.634203    0.189643
H      7.802641    2.788192    1.542587
H      8.202479    4.246806    0.629423
H     -4.607975    1.836804   -0.972706
H     -6.316122    1.582767   -0.585396
H     -4.017165    0.969236    1.375167
H     -5.791439    0.644435    1.586593
H     -4.200245   -0.436458   -0.820603
H     -5.905610   -0.703654   -0.375193
H     -5.280338   -1.783176    1.727951
H     -4.743434   -2.653820    0.304148
H     -3.011828   -2.455178    2.267965
H     -3.306607   -0.724405    2.221322
H      2.037652   -2.656006    3.254681
H      3.826116    2.870236   -4.068933
H     -1.163023   -1.204601    1.537094
H     -1.990373   -0.399485    0.223403
H      0.204427   -3.024464    1.705315
H      5.692831    3.229704   -2.501206
H      3.879356   -1.076536    2.687544
H      2.052747    1.268385   -3.424453
H     -1.251752   -3.391904    0.288278
H     -0.438564   -0.921869   -1.299706
H     -0.017761   -3.652552   -1.454397
H     -3.337084   -3.971621   -2.526096
