31

C     -2.461253   -0.501155    0.862829
C     -2.490011   -1.951927    0.465636
C      0.099669    2.128175   -0.917789
C     -1.431129    0.171220   -1.330474
C      0.617755    0.014586   -0.025529
C      2.091327    1.817788    0.392924
C     -0.243604    0.797495   -0.768299
C      1.252780    2.643729   -0.347482
C     -2.645438    0.199920   -0.464368
C      1.758544    0.493808    0.547048
C     -3.129758   -1.937765   -0.876489
O      1.608574    3.961580   -0.485786
O     -3.203440   -2.947497   -1.658453
O      4.665723   -2.202462    1.406673
O      3.242840   -1.896160   -0.741064
O      4.772193   -0.063558   -0.080868
O     -3.602913   -0.648687   -1.075675
O      2.595219   -0.330425    1.285826
S      3.842259   -1.134045    0.431583
H     -1.522815   -0.208133    1.365944
H     -3.356843   -0.284667    1.479462
H     -3.153743   -2.539613    1.135337
H     -1.511988   -2.442758    0.464656
H     -0.563322    2.740334   -1.492115
H     -1.206502   -0.907727   -1.548092
H     -1.682633    0.639327   -2.296956
H      0.411735   -1.053532    0.136817
H      2.982522    2.226105    0.831020
H     -3.083434    1.210496   -0.344191
H      1.291484    4.664023    0.196812
H      4.056202   -2.658474    2.035187
