35

C     -1.977368   -1.822117    1.395345
C      4.551950    1.950017    0.850568
C     -2.579528    3.222450   -0.560113
C      1.078034    0.929302    0.270664
C      3.126667   -0.319606    0.189134
C     -3.129286   -1.094018   -0.715887
C      2.457934    0.851871    0.390518
C      0.354588   -0.183780   -0.056159
C      2.367740   -1.463147   -0.148397
C     -3.304361    0.363286   -0.411990
C      0.995249   -1.411738   -0.273683
C     -1.103472   -0.111487   -0.176677
C     -1.936328    0.892395   -0.384320
C      0.187540   -2.566738   -0.629647
C     -1.832223   -1.403558   -0.041609
O      3.052055   -2.613549   -0.343310
O     -4.380630    0.972188   -0.227119
O      0.732692   -3.682555   -0.830385
O      3.154038    2.028093    0.729060
O     -1.586501    2.236975   -0.551098
O     -1.182104   -2.427994   -0.745284
H     -1.661996   -2.875203    1.570780
H     -2.992459   -1.692322    1.791796
H     -1.271097   -1.191896    2.003356
H      4.951623    2.991586    0.928903
H      4.783605    1.368767    1.767569
H      5.015648    1.467669   -0.024995
H     -2.118467    4.210741   -0.701187
H     -3.091186    3.176935    0.435200
H     -3.338334    3.058560   -1.352676
H      0.586149    1.880663    0.439131
H      4.198507   -0.386420    0.280856
H     -2.948399   -1.146046   -1.829044
H     -3.978056   -1.700170   -0.395569
H      2.817777   -3.509150   -0.571345
