63

C     -6.722308    0.199672    2.596073
C     -1.115281   -0.457024   -2.933213
C     -4.521645    1.139656    2.048578
C     -3.272447   -1.300965   -2.172986
C     -4.323996   -1.372443   -1.406680
C     -3.288136    1.040549    1.249705
C      6.504325    0.022266    1.172739
C      5.349542    0.709694    0.428640
C     -5.539432   -0.651470    0.627798
C      3.073159    1.542859   -0.700443
C     -5.767297    0.568008    1.473043
C     -2.349963   -0.134518   -2.088363
C     -4.534095   -0.224074   -0.451817
C     -3.207085   -0.077780    0.248935
C      2.940541    0.399469    0.017023
C      6.927594   -1.129654    0.298778
C     -2.068934    0.252737   -0.699139
C      0.533476    0.384496   -0.365174
C      1.676391   -0.195168    0.195237
C     -0.772339   -0.166514   -0.136974
C      5.784781   -2.012785   -0.095532
C      4.465493   -1.562383    0.041722
C      0.740756    1.543417   -1.079044
C      4.149913   -0.220443    0.616320
N      1.982726    2.100816   -1.238041
O      7.456580   -0.583360   -0.891156
O      1.667252   -1.325753    0.922255
O     -0.821269   -1.177573    0.660678
O     -0.168240    2.202234   -1.645013
O      3.944175   -0.259881    2.004870
O      2.163348    3.255755   -1.956233
O      5.074702   -1.583912   -1.216266
H     -7.568336    0.910100    2.684880
H     -6.133594    0.129535    3.531774
H     -7.149736   -0.825344    2.424094
H     -0.840861    0.405978   -3.524906
H     -1.395553   -1.312441   -3.623095
H     -0.358445   -0.862490   -2.244978
H     -4.415078    0.764404    3.101980
H     -4.726682    2.244046    2.197513
H     -3.042207   -2.108678   -2.905226
H     -5.034476   -2.191385   -1.419959
H     -2.422416    0.899987    1.961712
H     -3.030932    1.996817    0.713295
H      7.343310    0.691731    1.351511
H      6.109786   -0.442904    2.122333
H      5.667848    0.751595   -0.631792
H      5.163051    1.715351    0.843219
H     -6.473066   -0.895433    0.095887
H     -5.161464   -1.526279    1.195590
H      4.063245    2.001989   -0.837418
H     -6.324705    1.294377    0.826101
H     -2.821523    0.750924   -2.622165
H     -4.920767    0.673440   -0.921265
H     -2.974244   -1.037026    0.746000
H      7.765551   -1.660021    0.789680
H     -1.982274    1.411373   -0.719920
H      6.017749   -3.108088   -0.001748
H      3.649199   -2.320898    0.223399
H      7.339427   -1.186473   -1.652695
H      1.079781   -1.987420    1.258011
H      3.925863    0.674531    2.319771
H      2.689266    3.222776   -2.807906
