65

C      7.172178    1.161389   -1.632505
C      7.613489   -0.228735    0.336281
C     -1.330162    2.206504    0.621128
C     -0.801477    1.106942    2.729033
C     -1.106782   -3.809667   -0.832452
C     -6.277243    1.349362   -0.580584
C      2.239863   -1.802590   -1.385869
C      3.614627   -1.727589   -1.578334
C      4.468732    1.227627    0.504805
C     -5.888190    0.617141    0.672799
C      5.765622    1.343941    0.357265
C     -5.027479    1.550210   -1.398070
C     -3.514578    0.446408    1.493711
C      3.666982    0.195276   -0.131276
C      1.542672   -0.911626   -0.584403
C      4.321831   -0.712219   -0.937393
C     -2.177743   -0.115989    1.148495
C      0.225886   -0.739480   -0.215975
C      2.301642    0.077186    0.026871
C      0.186986    0.343936    0.610878
C     -0.969735   -1.503969   -0.576036
C     -4.465831   -1.393675    0.273975
C     -2.794064    0.082524   -1.234902
C      6.496426    0.391782   -0.496498
C     -1.070575    0.872580    1.233919
C     -4.527701    0.101375    0.424232
C     -2.250472   -0.832368   -0.175730
N      1.431792    0.809842    0.738592
N     -3.281244   -1.860672   -0.010365
N     -4.071643    0.628074   -0.859295
O     -5.589147   -2.155048    0.432676
O     -2.217811    0.335121   -2.294467
O     -0.994866   -2.768780    0.057930
O      5.694753   -0.581745   -1.087399
H      7.853093    1.898777   -1.195001
H      6.385543    1.689576   -2.198976
H      7.690085    0.395311   -2.245617
H      7.436844   -0.123215    1.414886
H      8.591457    0.241270    0.099817
H      7.648500   -1.293506    0.087702
H     -0.906138    3.025010    1.265010
H     -2.362105    2.446380    0.381059
H     -0.758994    2.318261   -0.347371
H     -0.292611    0.166568    3.076302
H     -0.136242    1.982508    2.802083
H     -1.765126    1.279135    3.215494
H     -1.117558   -4.752143   -0.235002
H     -0.258677   -3.861284   -1.528032
H     -2.084944   -3.808944   -1.376365
H     -6.709020    2.354429   -0.384554
H     -7.047932    0.741577   -1.114294
H      1.721794   -2.583763   -1.885276
H      4.118197   -2.441670   -2.210706
H      3.978913    1.959939    1.148234
H     -6.636630   -0.143665    0.982345
H     -5.884058    1.377653    1.496793
H      6.315143    2.126678    0.850140
H     -4.680560    2.616350   -1.368284
H     -5.286248    1.349987   -2.459120
H     -3.516215    1.525436    1.757900
H     -3.918101   -0.048854    2.429783
H     -1.929449   -0.929477    1.897242
H     -1.035645   -1.700730   -1.661270
H      1.723075    1.640984    1.314923
H     -5.523132   -3.151645    0.339118
