62

C     -6.523273    1.813879   -0.970261
C     -4.453961    2.663911    0.038200
C      6.739092    3.551968    0.677939
C     -1.916549   -5.057562    0.185206
C     -4.404876   -0.209591    1.471337
C     -3.316185   -1.038475    0.996318
C      0.856020    2.693202   -0.155603
C      5.899444   -2.509168   -0.262105
C     -5.411377    0.416212    0.643162
C     -2.282987   -0.343619    0.105624
C      0.049055    1.572139   -0.438078
C      6.687906   -1.391598    0.025870
C      2.224407    2.549943   -0.047888
C      4.549520   -2.366189   -0.478754
C     -5.121828    1.399642   -0.410663
C      0.621117    0.336120   -0.605585
C      6.122086   -0.151936    0.093195
C     -1.175766   -1.286001   -0.160276
C      2.822680    1.315402   -0.212011
C      3.947606   -1.134008   -0.418604
C      2.021059    0.241563   -0.486674
C      4.744061   -0.044221   -0.135196
C     -0.063627   -0.880457   -1.029877
C      6.883577    1.085424    0.411409
C     -1.632224   -2.688110   -0.474358
N      2.606193   -0.975170   -0.588697
N      4.160457    1.154160   -0.041689
O      0.848593   -1.927447   -1.257388
O      8.096474    1.082932    0.687404
O     -2.129491   -2.907728   -1.592174
O      6.207004    2.294402    0.400769
O     -1.512545   -3.723715    0.435188
H     -6.940447    2.524882   -0.220212
H     -7.146778    0.919319   -1.018044
H     -6.350836    2.342155   -1.918283
H     -3.796754    3.032752   -0.784173
H     -5.182308    3.511543    0.212641
H     -3.915748    2.568748    0.992057
H      7.833618    3.613679    0.755367
H      6.260039    3.909263    1.642133
H      6.310180    4.248160   -0.107726
H     -2.252536   -5.177586   -0.848128
H     -0.989822   -5.675085    0.358103
H     -2.650329   -5.328559    0.937390
H     -4.002455    0.546870    2.266259
H     -4.994207   -0.890484    2.218972
H     -3.672939   -1.909153    0.352480
H     -2.733640   -1.555339    1.798863
H      0.319780    3.619134   -0.045167
H      6.424642   -3.452283   -0.293548
H     -5.988419   -0.431635    0.117097
H     -6.187040    0.923435    1.328962
H     -1.935255    0.516714    0.780419
H     -2.730233    0.099481   -0.767226
H     -0.995051    1.689636   -0.578080
H      7.749919   -1.486302    0.205222
H      2.833688    3.411081    0.164417
H      3.970999   -3.249181   -0.700286
H     -4.627038    0.949913   -1.321773
H     -0.679824   -1.390581    0.918448
H     -0.518466   -0.619569   -2.049103
H      0.445597   -2.796909   -0.965389
