63

C     -5.953198    3.494806   -0.531009
C     -1.547273   -2.873297   -0.475195
C     -3.825321    2.791629    0.422175
C     -3.849293   -2.245429   -0.377941
C     -4.745804   -1.306583   -0.488284
C     -2.916544    1.686475    0.828320
C      5.478900    1.514370   -0.330073
C      4.308607    0.873201   -0.998570
C     -5.339119    1.096985   -0.624715
C      2.965668   -1.552934    1.235071
C     -5.251676    2.342020    0.199020
C     -2.548430   -2.016667    0.288268
C     -4.499613    0.029254    0.048173
C     -3.069165    0.448179   -0.029359
C      2.917078   -0.890189    0.042559
C      6.727453    0.736111   -0.764879
C     -2.114081   -0.618376    0.451641
C      0.500410   -0.798404    0.309619
C      1.645416   -0.503720   -0.430235
C     -0.795210   -0.354085   -0.156968
C      6.601109   -0.635755   -0.192695
C      5.341771   -1.235094   -0.095404
C      0.637243   -1.465691    1.496903
C      4.143780   -0.583280   -0.732451
N      1.855605   -1.828509    1.934645
O      7.839634    1.343892   -0.139262
O      1.660305    0.155714   -1.630603
O     -0.811026    0.348149   -1.236156
O     -0.359978   -1.772708    2.244144
O      3.974684   -1.232840   -1.978866
O      1.924296   -2.502694    3.143899
O      5.921741   -0.695645    1.034550
H     -5.333316    3.850389   -1.379297
H     -6.926726    3.185983   -0.925962
H     -6.025003    4.353933    0.176617
H     -2.051479   -3.593829   -1.164761
H     -0.974543   -3.513028    0.225737
H     -0.848794   -2.305985   -1.081495
H     -3.435205    3.330942   -0.450398
H     -3.855002    3.538503    1.258652
H     -4.023844   -3.266652   -0.778393
H     -5.714496   -1.479133   -0.984512
H     -1.869337    2.028452    0.705108
H     -3.044022    1.364502    1.881617
H      5.403391    1.455238    0.775356
H      5.576762    2.541533   -0.710271
H      4.402899    1.087734   -2.099169
H      3.375177    1.417088   -0.669024
H     -6.390967    0.760160   -0.627451
H     -4.955697    1.228958   -1.640012
H      3.909972   -1.887652    1.671574
H     -5.768904    2.179075    1.164859
H     -2.683736   -2.483683    1.312068
H     -4.797775    0.022092    1.130038
H     -2.823406    0.693195   -1.092614
H      6.815934    0.765514   -1.867317
H     -2.000005   -0.394244    1.562715
H      7.532682   -1.253904   -0.273703
H      5.262587   -2.362361   -0.109091
H      7.549807    2.044762    0.497702
H      1.026723    0.537781   -2.218356
H      3.610627   -2.144284   -1.846082
H      2.237728   -3.449965    3.131804
