81

C      6.994823   -0.220346   -1.828726
C      4.139471    1.334201    0.230979
C     -5.968842   -0.886758    0.792234
C     -5.540548   -0.969436   -1.596894
C     -2.507670   -0.640222   -2.163089
C      1.217095   -0.928972   -0.868935
C      0.146331    0.023295    2.641680
C      6.192576   -0.783704    0.867932
C      6.887361    0.446071    0.493018
C      4.834764   -0.668651    1.434516
C      2.264355   -1.764932    1.559903
C     -0.565026    1.400973   -0.522839
C     -4.259553    2.079244   -0.375707
C     -3.240418    1.526093   -1.345332
C      0.844581    1.295743    0.006353
C      0.785401   -2.042805    1.526052
C     -3.395105   -1.864795    0.376325
C      7.957578    2.003375   -0.975149
C     -7.616958    2.121726   -1.285385
C      7.272234    0.742038   -0.732849
C      3.770312   -0.064299    0.563884
C      2.435294   -0.257943    1.239521
C     -1.413141    0.255555   -0.218627
C     -1.996939   -1.842108    0.890773
C     -3.709213   -0.419584    0.036359
C     -5.520572    1.207611   -0.362124
C     -1.102848   -0.712530    0.623049
C     -5.147205   -0.258952   -0.344815
C     -2.727542    0.172897   -0.911977
C      1.227578   -0.079002    0.379950
C      0.168987   -0.673725    1.325852
O      8.204472    2.828744   -0.081927
O     -7.970481    2.358269   -0.091085
O     -1.650304   -2.845702    1.558801
O     -6.364408    1.531574   -1.454693
H      5.888990   -0.398288   -1.810208
H      7.439318   -1.217908   -1.556456
H      7.363204    0.114191   -2.797429
H      4.489004    1.404860   -0.800182
H      3.328808    2.091879    0.345296
H      4.901590    1.703112    0.985460
H     -6.133781   -1.957911    0.621698
H     -5.475467   -0.685810    1.779701
H     -6.943732   -0.355641    0.821139
H     -6.668991   -1.030286   -1.592258
H     -5.204272   -2.020436   -1.511974
H     -5.259897   -0.473417   -2.527477
H     -1.414289   -0.737910   -2.417069
H     -2.917894   -1.646532   -2.135689
H     -2.947149   -0.141573   -3.069377
H      0.293274   -1.553897   -0.944089
H      1.189828   -0.282552   -1.793609
H      2.068240   -1.592832   -0.988294
H      0.386723    1.091720    2.600924
H     -0.851667   -0.120415    3.109043
H      0.876311   -0.437698    3.365530
H      6.858134   -1.297995    1.632895
H      6.156328   -1.519628    0.020400
H      7.130229    1.176890    1.275363
H      4.550075   -1.680732    1.808344
H      4.898386   -0.038680    2.361474
H      2.741041   -2.359935    0.759038
H      2.698540   -1.962149    2.565256
H     -0.997209    2.340502   -0.110584
H     -0.591852    1.534566   -1.632684
H     -3.868464    2.231326    0.633721
H     -4.579288    3.066411   -0.768358
H     -2.477329    2.282609   -1.508206
H     -3.784339    1.407490   -2.322665
H      1.484036    1.580901   -0.884754
H      1.038688    2.073308    0.772189
H      0.444123   -2.496450    2.487067
H      0.498890   -2.732914    0.706120
H     -4.125006   -2.142778    1.191205
H     -3.559446   -2.566068   -0.436618
H      8.262602    2.222334   -1.988035
H     -8.275673    2.377751   -2.086859
H      3.757076   -0.619938   -0.437993
H      2.340814    0.311508    2.148463
H     -3.585372    0.138106    1.012742
H     -6.069574    1.517964    0.561172
