76

C      3.416794   -1.026228   -1.499976
C      8.123396    0.177082   -1.064068
C     -6.040077    1.155843   -0.947418
C     -6.003453   -1.156179   -0.211958
C     -2.898274   -1.940930    0.416638
C      0.583884   -1.185599   -0.016806
C      0.036997    2.539251    0.330797
C      2.164114    1.642661   -1.221702
C     -0.887293    0.113304    1.937738
C     -4.607371    0.707198    2.408493
C     -3.646314   -0.454692    2.184195
C      0.564572    0.437398    1.762327
C      0.721719    1.418662   -1.701723
C      3.935912   -0.971281    0.888914
C      6.290801   -0.417375    0.557608
C     -3.486762    0.071558   -1.582389
C      3.456291   -0.179358   -0.276486
C      7.032620   -0.662032   -0.506244
C      5.324117   -1.532726    0.745376
C      2.296522    0.700039   -0.035820
C     -1.705254    0.120531    0.713658
C     -2.115681    0.639946   -1.636826
C     -3.937182    0.282038   -0.133238
C     -5.717978    0.655024    1.424926
C     -1.273720    0.644368   -0.413824
C      6.597387   -1.923976   -1.110263
C     -5.408162    0.177538    0.054149
C     -3.081958   -0.502129    0.804848
C      0.977159    0.196252    0.300105
C      0.066764    1.227934   -0.397625
O     -1.634130    1.123272   -2.690748
O     -6.820935    1.001791    1.780426
O      7.043263   -2.494684   -2.115772
O      5.538955   -2.395847   -0.315654
H      4.237458   -0.794826   -2.247097
H      3.486522   -2.117289   -1.324223
H      2.496129   -0.901148   -2.110855
H      7.963249    0.376173   -2.152168
H      9.100663   -0.341870   -0.996910
H      8.226611    1.135808   -0.544187
H     -6.175129    0.578633   -1.889586
H     -6.998986    1.529750   -0.590266
H     -5.375772    2.024127   -1.133608
H     -5.540635   -1.701410   -1.045037
H     -7.076266   -0.987328   -0.528099
H     -6.076322   -1.729055    0.728717
H     -3.837460   -2.530263    0.422525
H     -2.277236   -2.405361    1.238940
H     -2.303026   -2.087248   -0.506955
H     -0.137786   -1.134028   -0.887937
H      1.345434   -1.899321   -0.305784
H     -0.041616   -1.674938    0.792836
H      1.005594    2.922406    0.645635
H     -0.365230    3.292346   -0.403252
H     -0.739633    2.529718    1.143348
H      2.235630    2.705079   -0.962806
H      2.896482    1.439625   -2.013709
H     -1.296774    0.806756    2.715927
H     -0.942127   -0.894124    2.453989
H     -5.038685    0.542538    3.430331
H     -4.090419    1.680341    2.432511
H     -2.903115   -0.407825    3.001238
H     -4.256410   -1.378252    2.419184
H      1.150441   -0.178957    2.453798
H      0.746950    1.488920    2.062515
H      0.338880    2.364980   -2.158417
H      0.609813    0.551405   -2.342292
H      3.287941   -1.882374    1.074843
H      3.954406   -0.389301    1.839220
H      6.336108    0.436048    1.218576
H     -4.150027    0.610446   -2.256110
H     -3.507248   -0.999697   -1.859866
H      4.324389    0.544523   -0.467061
H      5.572894   -2.074961    1.695914
H      2.586814    1.391918    0.822818
H     -3.679230    1.369382    0.060452
