82

C      7.800754   -0.830512    1.169513
C      3.438726    2.498191   -0.976184
C     -5.437008   -1.740960    1.527191
C     -5.292049    0.531667    2.363840
C     -3.012466    2.030878    1.008570
C      0.471224   -1.632645   -1.485746
C      0.900844    1.360530    0.792070
C      5.562553   -0.580777   -0.408026
C      6.931581   -0.690865   -1.046308
C      4.969681    0.710309   -0.823967
C      2.681639   -1.129083    0.038346
C     -5.353428    1.285605   -0.662979
C     -3.910011    1.209234   -1.095486
C      1.318306   -1.343289    0.758316
C     -2.702873   -0.923290    1.775599
C      0.440625    1.198592   -1.629024
C      9.345246   -0.919395   -0.863719
C     -8.197092   -0.561809   -0.269801
C      8.011577   -0.810848   -0.300759
C      3.616572    1.103207   -0.306832
C      2.550736    0.182931   -0.660412
C     -1.550436   -1.520766    1.004349
C     -0.933045    1.513858   -1.170858
C     -3.622967   -0.381234    0.699906
C     -5.888240    0.049674   -0.035341
C     -1.636011    0.554100   -0.284583
C     -0.976172   -0.497025    0.126765
C     -5.028118   -0.302365    1.159415
C     -3.039441    0.846719    0.072309
C      0.439740   -0.750498   -0.291050
C      1.147979    0.577721   -0.470370
O     10.322386   -1.030695   -0.089016
O     -7.834059   -1.450610   -1.077927
O     -0.670602   -2.016678    1.967172
O     -1.428563    2.587719   -1.563826
O     -7.226170    0.248516    0.303410
H      7.355065    0.126625    1.544367
H      7.206276   -1.721196    1.491147
H      8.795402   -0.890561    1.653992
H      4.341814    3.045464   -0.631910
H      2.580495    3.039411   -0.539415
H      3.491321    2.450084   -2.054998
H     -4.990646   -2.474754    0.853628
H     -5.227340   -1.932474    2.600737
H     -6.558328   -1.742863    1.445853
H     -5.958409    1.382190    2.036874
H     -5.936584   -0.003073    3.125010
H     -4.413593    0.858067    2.921379
H     -2.441733    1.811027    1.952836
H     -4.000120    2.474670    1.202171
H     -2.419956    2.830887    0.517891
H     -0.552677   -1.678893   -1.919966
H      0.708721   -2.706023   -1.219701
H      1.149527   -1.361758   -2.281867
H      0.088551    0.906135    1.432542
H      1.806817    1.307424    1.412093
H      0.560217    2.395192    0.595333
H      5.674555   -0.644295    0.692095
H      5.040058   -1.491337   -0.754134
H      6.974618   -0.666846   -2.101512
H      5.739499    1.499049   -0.583848
H      4.929099    0.710465   -1.956238
H      2.855345   -1.999400   -0.628869
H      3.402065   -1.165326    0.867764
H     -5.582041    2.167941   -0.040423
H     -5.941456    1.449768   -1.614805
H     -3.705556    2.238855   -1.506618
H     -3.837319    0.459181   -1.895052
H      1.269666   -2.444013    0.856218
H      1.322449   -0.855499    1.727738
H     -3.221095   -1.765906    2.273942
H     -2.351997   -0.154656    2.478261
H      0.941437    2.072313   -2.063086
H      0.300969    0.479796   -2.483773
H      9.521122   -0.907208   -1.926459
H     -9.254121   -0.474695   -0.062245
H      3.730410    1.353135    0.756757
H      2.643904   -0.078000   -1.770964
H     -1.935215   -2.403601    0.432377
H     -3.615504   -1.162826   -0.121142
H     -5.752858   -0.786128   -0.769020
H     -0.944271   -2.922452    2.246379
