76

C      4.052203    0.477137   -1.475046
C      8.031715    1.627823    1.569764
C     -5.874510   -0.920267    1.283815
C     -6.324739    0.054122   -0.895966
C     -3.020244    2.085524   -0.512821
C      0.761008    0.951052   -1.478752
C     -0.160714   -2.480490   -0.088079
C      1.794086   -1.473242   -2.400641
C     -0.571201    0.510643    1.192786
C     -4.527061    2.079821    1.754933
C     -3.236985    1.289920    1.768961
C      0.807486    0.106547    0.818655
C      0.260554   -1.577172   -2.380767
C      3.943129   -0.790799    0.656216
C      6.309683    0.079007    0.497649
C     -3.852728   -0.357587   -1.590554
C      3.508412   -0.686204   -0.766652
C      6.988107    0.540371    1.563967
C      5.402876   -0.957604    0.930310
C      2.122960   -1.097533   -0.966935
C     -1.622237    0.220611    0.216073
C     -2.481765   -0.889032   -1.780442
C     -3.987121   -0.149194   -0.078639
C     -5.589554    1.460898    0.958452
C     -1.438461   -0.606192   -0.818517
C      6.575038   -0.235044    2.715052
C     -5.385196    0.162135    0.312723
C     -2.952186    0.846906    0.347559
C      0.959447   -0.262613   -0.593652
C     -0.136760   -1.251494   -0.949794
O     -2.228694   -1.589293   -2.782662
O     -6.642023    2.056125    0.850364
O      7.029521   -0.050485    3.900029
O      5.649243   -1.155596    2.298076
H      4.365456    1.244324   -0.734918
H      3.300935    1.033041   -2.100580
H      4.946640    0.254267   -2.093529
H      7.965930    2.249295    0.675370
H      9.032898    1.120722    1.548969
H      7.973804    2.243568    2.469511
H     -6.956555   -1.111238    1.153624
H     -5.641103   -0.555709    2.319082
H     -5.314829   -1.857944    1.055458
H     -6.488680   -1.031447   -1.103232
H     -7.320000    0.438441   -0.568336
H     -5.964447    0.621289   -1.754777
H     -2.388283    2.872623   -0.041580
H     -4.026065    2.489005   -0.640947
H     -2.599755    1.896685   -1.503770
H      0.999763    0.780641   -2.541958
H     -0.291176    1.315971   -1.493303
H      1.327112    1.820598   -1.031068
H      0.367461   -3.287458   -0.676812
H     -1.204112   -2.844495    0.011122
H      0.330455   -2.433594    0.868136
H      2.144174   -0.768096   -3.149745
H      2.229001   -2.460674   -2.670963
H     -0.896896    0.032880    2.163592
H     -0.605707    1.606185    1.406119
H     -4.358103    3.106890    1.363749
H     -4.927590    2.228944    2.798380
H     -3.344946    0.444963    2.458207
H     -2.459307    2.003092    2.104416
H      1.126465   -0.716793    1.520698
H      1.475636    0.954888    1.138454
H     -0.053054   -2.591153   -2.686527
H     -0.107810   -0.819478   -3.070177
H      3.611288    0.090594    1.259851
H      3.433949   -1.665673    1.170356
H      6.539882    0.511714   -0.480372
H     -3.968123    0.562088   -2.167105
H     -4.628898   -1.070670   -1.939296
H      4.098378   -1.578844   -1.267793
H      5.771923   -1.933840    0.441103
H      1.997775   -2.076360   -0.405282
H     -3.656777   -1.138043    0.357462
