77

C      6.608131   -2.585177    0.688788
C      3.356257    1.465472   -2.420780
C     -6.115662    0.613075    0.604233
C     -5.672482   -1.476627    1.857721
C     -3.383451    1.025372   -1.313458
C      0.266028    1.120293   -1.621231
C      0.937578    0.298516    2.033517
C      4.245965   -1.383167   -0.081229
C      5.167379   -0.610604    0.810026
C      4.069026   -0.582386   -1.355532
C     -1.996088    1.007242    1.594577
C     -3.454276    0.731260    1.630144
C     -0.807824   -1.119819   -1.007237
C     -4.880625   -1.500388   -1.794989
C     -3.395333   -1.429681   -1.539591
C      0.650588   -1.054406   -0.612838
C      2.035197    2.315353    0.124565
C      7.226759   -0.479090    2.042779
C      6.296471   -1.212703    1.164982
C      3.466945    0.766441   -1.079662
C     -1.634095   -0.329928   -0.335508
C     -1.144464    0.540859    0.717381
C      2.323430    0.836124   -0.199762
C     -3.816430   -0.410212    0.693692
C     -5.669678   -1.436636   -0.547400
C      0.639931    2.312372    0.749115
C     -5.280714   -0.630779    0.632530
C     -3.099894   -0.287582   -0.619234
C      0.982299    0.375754   -0.504553
C      0.299622    0.856285    0.792445
O      6.969888    0.663101    2.440591
O     -6.697375   -2.079867   -0.480092
O      0.717213    2.802025    2.076099
H      5.855479   -3.327837    1.067614
H      7.582089   -2.886755    1.119819
H      6.703035   -2.638223   -0.413156
H      3.149251    2.530225   -2.368948
H      4.420132    1.415613   -2.828451
H      2.787965    0.884878   -3.172553
H     -5.635744    1.518148    0.256921
H     -7.049564    0.463417   -0.013507
H     -6.491559    0.790642    1.636622
H     -4.885152   -2.282808    1.897101
H     -5.628741   -0.892772    2.781185
H     -6.634172   -1.997140    1.689315
H     -3.147995    1.906263   -0.721186
H     -4.396504    1.084338   -1.742937
H     -2.697106    1.044926   -2.211335
H     -0.193726    0.389682   -2.342254
H     -0.611948    1.711888   -1.244546
H      0.891351    1.849706   -2.138504
H      1.355471   -0.694730    1.969975
H      1.653172    0.984002    2.529155
H      0.089575    0.217682    2.783360
H      4.653633   -2.356385   -0.345235
H      3.285723   -1.567961    0.445922
H      4.941930    0.387067    1.155464
H      5.110937   -0.437991   -1.739688
H      3.547725   -1.149139   -2.144311
H     -1.563803    1.658870    2.362260
H     -3.696791    0.473873    2.684893
H     -3.966143    1.668313    1.406607
H     -1.174297   -1.753994   -1.770663
H     -5.119768   -2.454202   -2.307018
H     -5.215980   -0.695850   -2.500580
H     -2.932985   -1.204209   -2.529193
H     -3.063040   -2.385381   -1.134578
H      1.175819   -1.611165   -1.410302
H      0.727564   -1.660568    0.297651
H      1.949974    2.932971   -0.780670
H      2.771925    2.705197    0.852538
H      8.159729   -0.927298    2.359473
H      4.310678    1.340154   -0.572700
H      2.582463    0.423551    0.825655
H     -3.374948   -1.328170    1.180215
H     -0.063776    2.962979    0.241893
H      0.627804    3.787695    2.044238
