76

C      3.658553   -2.014346    0.413370
C      8.554392   -1.181391    1.010414
C     -6.100599    0.564079   -1.067900
C     -5.419883   -1.552001   -0.091441
C     -2.750342    1.824069    1.365158
C      1.419229    0.927179    0.917581
C      0.267348   -0.716206   -2.318695
C      6.115685   -0.717541   -0.405799
C      4.845653   -0.504054   -1.131271
C      7.014373    0.255834   -0.380549
C      2.453093    1.041040   -1.561200
C     -0.705391   -0.932572    1.263691
C     -4.696581    0.055665    2.418633
C     -3.357172   -0.441095    1.997960
C      0.630003   -1.340971    0.623139
C      1.026792    1.502924   -1.673517
C     -3.444725    1.380850   -1.265595
C      3.675246   -0.634538   -0.178675
C      8.277992    0.101393    0.316065
C      2.414309   -0.363856   -0.909112
C     -1.468426    0.016535    0.449075
C     -1.966213    1.521602   -1.356538
C     -3.718807    0.229029   -0.338040
C     -5.621090    0.414629    1.310340
C     -1.053638    0.581988   -0.663640
C     -5.147821   -0.038307   -0.054108
C     -2.835797    0.407341    0.873264
C      1.176484   -0.169289   -0.078000
C      0.257414    0.299022   -1.204562
O      9.097665    1.056577    0.309967
O     -1.500825    2.451058   -2.031149
O     -6.005592    1.763626    1.318005
H      4.556575   -2.615855    0.071627
H      3.625827   -2.049094    1.511888
H      2.806558   -2.651464    0.044434
H      8.801236   -1.933978    0.254112
H      9.409509   -0.974749    1.708170
H      7.650562   -1.473183    1.597663
H     -5.830830    1.553814   -1.414549
H     -7.130907    0.467749   -0.666833
H     -6.070361   -0.128924   -1.958810
H     -5.521808   -1.970626    0.921422
H     -4.558370   -2.066255   -0.595506
H     -6.316852   -1.805275   -0.651830
H     -2.953902    1.902753    2.474021
H     -3.410258    2.537012    0.883975
H     -1.710118    2.257260    1.270028
H      1.845769    1.853249    0.507757
H      2.114847    0.560937    1.700145
H      0.485054    1.230900    1.445996
H      0.394448   -1.746318   -1.980294
H     -0.759301   -0.669040   -2.786353
H      0.961231   -0.429340   -3.137097
H      6.288952   -1.655553    0.085238
H      4.809658   -1.280549   -1.927794
H      4.837848    0.472708   -1.658871
H      6.760096    1.176616   -0.906967
H      2.845627    0.946825   -2.600106
H      3.118403    1.724817   -1.027774
H     -0.439364   -0.413291    2.211858
H     -1.290527   -1.837935    1.539771
H     -5.133974   -0.741718    3.091911
H     -4.642718    0.954312    3.102394
H     -3.339350   -1.511568    1.805341
H     -2.656876   -0.269996    2.868052
H      0.464225   -2.251837    0.053345
H      1.328029   -1.581289    1.481963
H      0.795200    2.429355   -1.123732
H      0.750876    1.742340   -2.743518
H     -3.972445    2.301148   -1.055044
H     -3.773442    1.047207   -2.293227
H      3.814162    0.084253    0.689971
H      2.304992   -1.071770   -1.743195
H     -3.325988   -0.679539   -0.891909
H     -6.590298   -0.143590    1.484580
H     -6.433324    2.002977    0.480873
