82

C      8.216281   -0.358760    0.551312
C      2.994637   -0.928054   -2.600019
C     -5.984030   -1.387629    0.984665
C     -5.792941    0.877998    1.806818
C     -2.844466    1.795058   -0.583192
C      0.690689    0.798560   -0.979545
C      0.433843   -2.127454    1.468251
C      5.432349   -0.932098    0.301512
C      5.925937    0.468772    0.442561
C      4.662572   -1.169282   -0.927743
C     -1.760122    0.124484    1.918017
C     -3.197852    0.569003    1.870225
C      2.562997   -0.489358    1.165583
C     -1.230003   -0.912519   -1.521289
C     -5.269266    0.252227   -1.864800
C     -3.826039   -0.050655   -1.829009
C      1.222254    0.139706    1.641046
C      0.121869   -1.524574   -1.400271
C      7.634800    2.169189    0.695282
C     -7.683891    2.279743   -0.405445
C      7.221183    0.729575    0.558272
C      3.364356   -0.456722   -1.161633
C      2.310427   -0.952374   -0.226376
C     -1.785387   -0.343725   -0.454389
C     -1.119633   -0.296115    0.837153
C     -3.867163   -0.133881    0.672431
C     -5.979399    0.479249   -0.582685
C     -5.329252   -0.032586    0.653888
C     -3.120058    0.285320   -0.542234
C      0.910118   -0.615413   -0.503963
C      0.287116   -0.760783    0.885901
O      8.308864    2.392101    1.883569
O     -8.602201    1.423934   -0.521714
O     -6.389011    1.852388   -0.431058
H      8.289496   -0.874508   -0.421679
H      8.051359   -1.099216    1.366078
H      9.219573    0.093159    0.735145
H      2.264800   -0.278377   -3.066202
H      2.832219   -1.993734   -2.574034
H      3.947691   -0.753348   -3.171745
H     -5.919528   -1.617739    2.050487
H     -7.018491   -1.431533    0.596015
H     -5.407536   -2.142520    0.395413
H     -5.348384    1.869609    1.760136
H     -5.692972    0.351322    2.775789
H     -6.904590    0.983830    1.635611
H     -3.736115    2.407545   -0.540225
H     -2.193900    2.117890    0.260039
H     -2.277034    2.058935   -1.501203
H     -0.004962    1.357913   -0.303850
H      1.626151    1.382732   -1.079520
H      0.202171    0.824822   -1.987704
H      1.037626   -2.144394    2.419696
H     -0.597138   -2.421959    1.833464
H      0.827552   -2.905062    0.827571
H      6.380978   -1.584601    0.222443
H      4.976222   -1.308364    1.229325
H      5.226221    1.285016    0.445192
H      4.495696   -2.304892   -0.976316
H      5.356300   -1.034137   -1.823624
H     -1.272819    0.162568    2.867761
H     -3.665951    0.162916    2.792852
H     -3.329956    1.643128    1.868893
H      3.261585    0.344780    1.243859
H      2.813180   -1.319655    1.866762
H     -1.713573   -0.954094   -2.482557
H     -5.820992   -0.542270   -2.459224
H     -5.478418    1.174744   -2.499033
H     -3.693435   -1.126718   -2.110607
H     -3.311377    0.517251   -2.632779
H      1.200920   -0.032969    2.734172
H      1.167637    1.191808    1.383493
H      0.496497   -1.672385   -2.401049
H     -0.046936   -2.529708   -0.965261
H      6.770857    2.839357    0.573192
H      8.354941    2.338484   -0.157928
H     -7.932469    3.334007   -0.287888
H      3.457651    0.597043   -1.176012
H      2.361381   -2.097467   -0.205274
H     -3.599814   -1.223411    0.857251
H     -6.982345   -0.051354   -0.662620
H      8.810456    3.240224    1.791932
