74

C      3.691816    2.266755    0.027186
C      6.834920   -0.958200    2.240000
C     -5.909530   -0.643171   -1.002946
C     -5.301146   -2.177914    0.774870
C     -3.143702    1.625236   -1.076181
C      0.769331    1.492359   -1.591679
C      0.732468   -1.728164    0.443744
C      5.585171    0.083849   -0.117613
C      4.927739    0.659508   -1.339320
C      5.932692   -1.184514   -0.115944
C      2.506428   -0.966705   -1.687045
C     -0.661445    1.133731    1.129028
C     -4.910222    1.516855    1.351738
C     -3.419367    1.402888    1.324508
C      0.813809    1.110137    0.866298
C      1.037436   -1.252490   -1.919012
C     -3.344672   -1.105380   -1.545900
C      3.572324    1.187169   -1.013389
C      6.569339   -1.778182    1.043014
C      2.593532    0.111331   -0.624089
C     -1.478873    0.414941    0.157991
C     -1.849343   -1.168907   -1.653069
C     -3.609987   -0.654962   -0.112315
C     -5.486977    0.161292    1.311305
C     -0.994611   -0.476028   -0.701477
C     -5.037386   -0.758374    0.246203
C     -2.943484    0.666495    0.097553
C      1.182179    0.570403   -0.466621
C      0.431551   -0.744825   -0.662224
O      6.909133   -2.988036    1.064661
O     -1.361726   -1.834157   -2.583254
O     -6.310208   -0.140561    2.159772
H      3.589883    1.879623    1.073167
H      3.056412    3.154930   -0.175663
H      4.759542    2.633421   -0.005879
H      5.896876   -0.425613    2.498071
H      7.142557   -1.588828    3.108080
H      7.631348   -0.242652    2.015663
H     -5.627110    0.178466   -1.654639
H     -5.742032   -1.603874   -1.561364
H     -6.980820   -0.635146   -0.741459
H     -4.480015   -2.403939    1.486158
H     -6.274409   -2.228292    1.300248
H     -5.205842   -2.881262   -0.062815
H     -2.720787    1.236755   -2.011314
H     -4.161980    2.005716   -1.145485
H     -2.502809    2.519771   -0.813628
H      1.298271    1.292669   -2.537471
H     -0.328396    1.489161   -1.752597
H      1.026700    2.524608   -1.279423
H      0.494507   -1.322841    1.445670
H      1.725032   -2.175488    0.355081
H     -0.000173   -2.574754    0.295079
H      5.757396    0.727089    0.732953
H      4.959582   -0.032893   -2.182855
H      5.564847    1.533986   -1.622891
H      5.737003   -1.777342   -0.990665
H      2.939089   -0.666702   -2.639854
H      2.948673   -1.909599   -1.283207
H     -0.993576    2.192807    1.139617
H     -0.871504    0.718047    2.137426
H     -5.180839    2.076653    2.290308
H     -5.338351    2.092455    0.518578
H     -3.003760    2.445933    1.245878
H     -3.099680    0.924080    2.272160
H      1.321525    0.528157    1.652871
H      1.237811    2.153508    0.960002
H      0.850981   -2.343836   -2.034287
H      0.664176   -0.694499   -2.822034
H     -3.712207   -2.150100   -1.617682
H     -3.802433   -0.466887   -2.296109
H      3.201899    1.706450   -1.944525
H      2.926937   -0.337150    0.334102
H     -3.031512   -1.394969    0.519342
