74

C      3.832488    1.369851    0.988735
C      8.245933    0.601990   -1.038219
C     -6.213241    0.766870    0.460068
C     -5.115537    2.200603   -1.170158
C     -2.597402    0.765841   -2.126777
C      0.957769    1.175768    0.103685
C     -0.002795   -2.059572    1.848913
C      5.499916   -0.257301   -0.689018
C      4.050361   -0.550195   -0.487162
C      6.390462   -1.185680   -0.932074
C      1.967196   -0.295580    2.704506
C     -0.634199   -1.400797   -0.960235
C     -4.743613   -1.190401   -2.265112
C     -3.455265   -1.432484   -1.544376
C      0.805611   -1.109194   -0.703666
C      0.499176    0.161610    2.694184
C     -3.277080    1.397885    0.939503
C      3.602690   -0.090630    0.889848
C      7.784395   -0.799662   -1.114924
C      2.292771   -0.616685    1.262087
C     -1.594890   -0.531957   -0.264739
C     -2.187746    0.731788    1.700156
C     -3.856379    0.369977    0.012714
C     -5.561535   -0.124725   -1.683056
C     -1.275453   -0.129931    0.966631
C     -5.129349    0.816460   -0.625897
C     -2.849198   -0.161090   -0.961280
C      1.091574   -0.248962    0.479982
C      0.001317   -0.606303    1.505067
O      8.624767   -1.699138   -1.347098
O     -2.039146    0.887898    2.917777
O     -6.708892    0.007334   -2.102927
H      3.451770    1.850517    1.905801
H      3.552830    1.944659    0.060787
H      4.954614    1.522355    1.044672
H      7.785757    1.055298   -0.115774
H      9.334859    0.670383   -0.884153
H      7.891532    1.226191   -1.876408
H     -7.186784    0.503988    0.019588
H     -5.930788    0.031709    1.260840
H     -6.285809    1.784800    0.930108
H     -5.491560    2.256191   -2.234002
H     -5.810536    2.896603   -0.614019
H     -4.138725    2.700767   -1.163564
H     -2.075448    1.689452   -1.853590
H     -1.931557    0.211782   -2.829110
H     -3.548004    0.912645   -2.650838
H     -0.115493    1.409313   -0.060712
H      1.296216    1.901155    0.866491
H      1.442571    1.322891   -0.888683
H      0.574609   -2.708289    1.194177
H     -1.071767   -2.407439    1.800938
H      0.306732   -2.253625    2.903384
H      5.835408    0.769314   -0.633011
H      3.937158   -1.649001   -0.519772
H      3.518629   -0.017924   -1.295226
H      6.060453   -2.216166   -0.989685
H      2.617139    0.465184    3.145686
H      1.991834   -1.175294    3.368443
H     -0.886749   -2.458200   -0.690052
H     -0.847669   -1.332883   -2.054582
H     -4.527713   -0.961182   -3.327991
H     -5.330450   -2.153852   -2.206313
H     -2.763328   -1.896133   -2.273068
H     -3.626225   -2.116334   -0.675836
H      1.363584   -2.073015   -0.575412
H      1.213166   -0.593653   -1.597663
H     -0.041081   -0.219725    3.587248
H      0.434885    1.244255    2.596437
H     -2.856941    2.273131    0.447188
H     -4.089403    1.658909    1.674965
H      4.349814   -0.577009    1.593221
H      2.369967   -1.746682    1.224949
H     -4.132207   -0.508672    0.672402
