82

C      7.516802   -0.052690    1.761383
C      3.044439   -1.687772   -1.737854
C     -6.024154   -0.462769    1.628788
C     -6.022469    1.652099    0.479609
C     -2.915270   -1.449056    1.699735
C      0.743381   -1.327884    0.637405
C      0.380666    2.268927   -0.542948
C      5.290671    0.634188    0.259801
C      6.674347    0.989565   -0.246092
C      4.662578   -0.247737   -0.737981
C     -1.976621    1.480841    1.243341
C     -3.437140    1.261967    1.474497
C      2.431983    1.101156    0.815927
C     -1.233022   -1.040282   -1.191373
C     -4.920760   -1.321677   -1.471396
C     -3.884521   -1.876208   -0.536584
C      1.026767    1.143960    1.501599
C      0.115713   -0.476425   -1.591235
C      9.111971    0.968419    0.053958
C     -8.406417   -0.706571   -1.007089
C      7.708744    0.659110    0.472509
C      3.292463   -0.807210   -0.477800
C      2.256535    0.258732   -0.415405
C     -1.844415   -0.435041   -0.191246
C     -1.241690    0.718128    0.487755
C     -3.994358    0.381373    0.382721
C     -5.961508   -0.478113   -0.840389
C     -5.450851    0.218632    0.436054
C     -3.170630   -0.894200    0.280722
C      0.839689   -0.208397   -0.336251
C      0.155151    1.025863    0.285503
O      9.816988   -0.243661   -0.065646
O     -8.456103    0.250485   -1.780452
O     -7.180868   -1.051507   -0.555758
H      6.975664   -1.017247    1.636760
H      6.985167    0.638810    2.451990
H      8.503803   -0.349895    2.219237
H      4.027616   -2.225903   -1.895770
H      2.325677   -2.478423   -1.550554
H      2.916130   -1.040249   -2.591185
H     -5.517867   -0.252625    2.575183
H     -6.092578   -1.558387    1.491365
H     -7.095685   -0.142472    1.805724
H     -5.403248    2.274688   -0.195813
H     -5.968039    1.977618    1.530172
H     -7.051318    1.684123    0.098175
H     -2.241411   -2.337855    1.511049
H     -3.810372   -1.867448    2.150608
H     -2.340711   -0.742453    2.291074
H      1.630316   -1.402453    1.317252
H     -0.120167   -1.251364    1.329426
H      0.638457   -2.294707    0.118789
H      0.819787    2.114815   -1.520120
H      0.969237    3.028740    0.005347
H     -0.644623    2.722832   -0.697652
H      4.823215    1.629008    0.394013
H      5.381105    0.196136    1.275385
H      6.753919    1.497787   -1.173010
H      4.667423    0.324141   -1.726903
H      5.391753   -1.093377   -0.981668
H     -1.542577    2.339361    1.755558
H     -3.929236    2.250254    1.392936
H     -3.558972    0.894195    2.486539
H      3.065194    0.639721    1.583671
H      2.699725    2.159108    0.591004
H     -1.589669   -1.882240   -1.747868
H     -4.378219   -0.743442   -2.247784
H     -5.393392   -2.166260   -2.008601
H     -3.211493   -2.539268   -1.083677
H     -4.371390   -2.609535    0.201155
H      0.919886    2.075655    2.067935
H      0.878317    0.295183    2.159659
H      0.570545   -1.124983   -2.330355
H     -0.170143    0.457658   -2.153864
H      9.154470    1.470333   -0.915386
H      9.612106    1.547348    0.874468
H     -9.288601   -1.228048   -0.715643
H      3.346091   -1.496937    0.364984
H      2.431923    0.932110   -1.295789
H     -3.768067    0.932783   -0.580074
H     -6.192923    0.355123   -1.539570
H      9.245085   -0.838201   -0.591105
