37

C      2.544734   -1.288575   -1.148907
C     -1.817680   -0.290706    1.645253
C     -3.172544   -1.535992   -0.064638
C      0.968895    0.497765   -1.968428
C      2.499972    0.177166    1.446830
C      1.850057   -1.125987    1.166293
C      1.888982    1.258651    1.016461
C      1.330309   -1.159359   -0.246208
C      0.630053    1.118002    0.299990
C     -1.992939    0.624677   -0.720969
C     -0.321754    2.052353    0.494365
C     -1.581722    1.926283   -0.211702
C     -0.975056   -0.404762   -0.844224
C     -1.995285   -0.581139    0.200815
C      0.442038   -0.009907   -0.606807
O     -0.097937    3.132815    1.366585
O     -2.328386    2.957777   -0.385417
H      3.117767   -0.346216   -1.227706
H      2.322892   -1.770772   -2.107627
H      3.237427   -2.001172   -0.610828
H     -2.072559   -1.210131    2.252663
H     -2.635532    0.434967    1.935980
H     -0.871810    0.142619    1.950515
H     -4.088889   -0.938969   -0.255874
H     -2.994389   -2.149144   -0.951727
H     -3.361642   -2.177824    0.800246
H      1.041518   -0.301685   -2.700644
H      0.140876    1.176448   -2.330147
H      1.852617    1.128212   -1.842986
H      3.439243    0.257959    1.982495
H      2.560562   -1.971748    1.270517
H      1.002205   -1.340043    1.867786
H      2.301853    2.273893    1.189687
H      0.777840   -2.116510   -0.360327
H     -2.786866    0.681437   -1.523499
H     -1.091997   -1.116391   -1.706483
H      0.237149    3.996008    0.928665
