51

C     -5.360505    1.414377   -1.723158
C     -6.052673    1.432289    0.655148
C     -2.630283   -2.362893    1.955860
C     -0.482549   -0.736009    0.555208
C      0.648213    0.180737    0.542662
C      8.135250    1.174230   -0.800812
C      7.236147    2.118014   -0.375534
C     -3.557741   -0.716728   -1.228060
C     -1.693065   -0.335734    0.911875
C     -2.925476   -1.875629   -0.485144
C      3.070357    0.703940    0.158031
C      6.419637   -0.502473   -0.852892
C      1.868834   -0.162086    0.198215
C      7.732061   -0.123080   -1.037363
C      5.492547    0.441534   -0.421605
C      5.901351    1.726868   -0.189227
C      4.122161    0.007783   -0.238234
C     -4.055011    0.152596   -0.100217
C      2.346747   -1.459445   -0.225449
C     -5.456418    0.604685   -0.446102
C     -2.804281   -1.290551    0.910695
O      8.638399   -1.103579   -1.473347
O      5.009083    2.674679    0.235577
O      1.640520   -2.496355   -0.332927
O     -6.272269   -0.487479   -0.661676
O      3.684780   -1.311073   -0.472813
O     -4.020789   -0.627252    1.043573
H     -4.469030    2.100968   -1.692158
H     -5.204780    0.709576   -2.576558
H     -6.292583    2.018010   -1.883736
H     -6.526789    0.707123    1.377144
H     -5.314679    2.006277    1.237530
H     -6.853263    2.113753    0.291149
H     -2.341123   -3.295033    1.436077
H     -3.526493   -2.493891    2.559813
H     -1.771465   -2.082299    2.595142
H     -0.341379   -1.754343    0.272792
H      0.506283    1.241619    0.836167
H      9.157349    1.431811   -0.953866
H      7.514067    3.142103   -0.180315
H     -2.784035   -0.133282   -1.797923
H     -4.352769   -1.098073   -1.868352
H     -1.766553    0.717551    1.190701
H     -3.606728   -2.759780   -0.489013
H     -1.941992   -2.133257   -0.927018
H      3.009990    1.743600    0.428978
H      6.104478   -1.532011   -1.041681
H     -3.425787    1.035384    0.064283
H      9.108543   -1.628440   -0.734912
H      5.283245    3.629664    0.414298
H     -6.799533   -0.728396    0.138986
