34

C      1.951006    2.798599   -1.536657
C     -3.695516    0.424440    0.100474
C     -3.534689   -0.798361    0.917498
C      2.643607   -0.532678    1.096789
C      3.509308   -1.225858    0.065716
C     -0.180550    1.204616   -0.732375
C      1.321918   -0.171680    0.580706
C     -1.246184    0.429200   -0.347301
C     -2.591672    0.771245   -0.847836
C     -2.189532   -1.414190    0.845652
C      1.097144    0.888886   -0.258391
C     -1.038562   -0.638486    0.493262
C      0.200661   -0.936360    0.947808
O      4.738203   -1.522706    0.661444
O     -2.797281    0.214889   -2.114255
O     -2.082671   -2.627240    1.099194
O      0.466415   -1.989100    1.790601
O      2.169531    1.702454   -0.671769
H      2.935195    3.215758   -1.863471
H      1.386018    2.508354   -2.447313
H      1.345927    3.572833   -1.011566
H     -4.625492    0.308594   -0.515396
H     -3.911577    1.309650    0.762750
H     -4.275416   -1.585928    0.645216
H     -3.723787   -0.569511    1.992718
H      3.190948    0.346814    1.489537
H      2.545072   -1.235655    1.950845
H      3.721329   -0.569795   -0.802951
H      3.065776   -2.187507   -0.256281
H     -0.295225    2.054222   -1.391299
H     -2.616951    1.877194   -0.990964
H      5.149167   -2.339935    0.339774
H     -2.420625   -0.685347   -2.136756
H     -0.211493   -2.597413    2.144598
