55

C      1.960330   -1.508503   -0.120642
C      6.994990   -2.391263    1.124647
C     -5.877939    2.150361    0.866725
C      4.536808   -1.207100    1.787647
C     -0.215711   -0.492271    1.493149
C      3.271830   -1.911618    2.080744
C      1.042554   -0.967675    2.098312
C      5.035069   -1.191220    0.429658
C     -0.498463    0.959495    1.835445
C     -4.707704    0.896265   -4.089443
C     -3.552152    1.548981   -3.733990
C     -5.265754    0.766003   -1.768300
C     -2.604865    0.746401    0.446375
C      2.060875   -1.440103    1.377549
C      6.200641   -1.745038    0.078709
C     -1.779354    1.407565    1.198582
C     -5.557608    0.510767   -3.075310
C     -4.084790    1.437785   -1.373965
C     -3.259718    1.807197   -2.403670
C      6.648359   -1.691658   -1.329307
C     -2.264336    2.794589    1.248781
C     -3.794953    1.631262    0.040205
O     -6.719655   -0.148777   -3.472454
O     -2.086874    2.458324   -2.175679
O      7.726017   -2.200200   -1.670858
O      5.846979   -1.063704   -2.270214
O     -1.736130    3.716735    1.880698
O     -4.856487    1.219562    0.891862
O     -3.407182    2.865933    0.464856
H      2.725754   -2.244313   -0.466918
H      0.995261   -1.976583   -0.426385
H      2.140952   -0.546994   -0.593687
H      7.939106   -2.777376    0.640654
H      7.312128   -1.737659    1.936806
H      6.452903   -3.302997    1.449744
H     -6.276870    2.348356   -0.125429
H     -5.493920    3.154491    1.229191
H     -6.671564    1.901980    1.613406
H      4.438390   -0.159963    2.208473
H      5.337851   -1.659591    2.441713
H     -1.067485   -1.072804    1.937432
H     -0.275229   -0.670845    0.404231
H      3.083456   -1.781844    3.188504
H      3.352193   -3.020660    1.951534
H      1.112843   -0.918056    3.180659
H      4.496062   -0.717525   -0.372549
H     -0.582502    1.130785    2.908356
H      0.307395    1.553529    1.357003
H     -4.910892    0.708959   -5.131254
H     -2.881963    1.853101   -4.517334
H     -5.939021    0.408398   -1.003929
H     -2.535715   -0.258848    0.117783
H     -6.661850   -1.163102   -3.541917
H     -1.640690    2.755743   -1.374417
H      6.188632   -0.764279   -3.166805
