55

C      5.855852    2.763431   -0.672731
C     -1.292043    1.110345    1.346449
C     -6.019534    2.916285    0.690907
C      5.987942    1.450093    0.088478
C      5.215460    0.407170   -0.689332
C      5.321370   -0.911439    0.018486
C      4.609405   -2.020711   -0.663604
C      3.128286   -1.843579   -0.833653
C      2.501142   -1.709264    0.516878
C      0.997920   -1.605326    0.398485
C      0.547839   -0.433604   -0.400955
C     -0.933245   -0.353410   -0.543406
C     -4.044249    0.772949    0.475685
C     -5.371879    0.602405    0.108864
C     -3.151430   -0.258579    0.360189
C     -5.754421   -0.651575   -0.378563
C     -7.143796   -0.856375   -0.765432
C     -4.803157   -1.638349   -0.467508
C     -1.717919   -0.181090    0.726611
O     -7.525041   -0.590845   -2.067914
O     -7.990857   -1.272729    0.083285
O     -5.172569   -2.779239   -0.916502
O     -1.536423   -1.249232    1.630082
O     -6.280541    1.618366    0.216815
O     -3.571204   -1.416142   -0.106606
H      6.079768    3.632646   -0.012628
H      6.511942    2.753933   -1.571828
H      4.819283    2.884806   -1.063432
H     -1.296309    1.909088    0.572713
H     -0.218796    0.973762    1.653736
H     -1.843799    1.417658    2.235535
H     -5.562970    3.581101   -0.073282
H     -5.301705    2.833891    1.533703
H     -6.929335    3.385033    1.138824
H      5.659292    1.553858    1.138555
H      7.078234    1.183305    0.065863
H      4.146065    0.736153   -0.657290
H      5.622747    0.391345   -1.698221
H      6.406448   -1.225510    0.085544
H      4.972861   -0.783701    1.065886
H      4.751109   -2.947517   -0.033108
H      5.077336   -2.298960   -1.643986
H      2.738181   -2.715066   -1.391204
H      2.892397   -0.942855   -1.449670
H      2.772258   -2.606561    1.148992
H      2.838860   -0.834485    1.081602
H      0.629374   -1.642466    1.441561
H      0.595272   -2.520971   -0.129503
H      0.945139   -0.574254   -1.445813
H      0.976713    0.530289   -0.046245
H     -1.132472    0.590793   -1.139018
H     -1.269490   -1.236457   -1.130555
H     -3.731360    1.756413    0.863120
H     -8.450786   -0.797236   -2.408238
H     -1.633166   -0.857591    2.534375
