54

C      2.820128    1.051481    0.406620
C      7.726521   -0.450836   -0.121791
C     -5.895670    2.138560   -1.488019
C      5.044044   -1.113183   -0.190251
C      0.406539   -0.206215   -0.443032
C      4.104043   -0.507390   -1.177974
C      1.714103   -0.621526   -0.950952
C      5.486375   -0.191193    0.862362
C     -0.462279    0.268737   -1.594169
C     -5.765603   -2.151715    1.801647
C     -6.156269   -0.846902    1.937589
C     -4.274859   -1.469883    0.107368
C     -2.946032    0.160743   -1.438723
C      7.284359    1.034111    1.909449
C      2.863700   -0.037478   -0.559224
C      6.803146    0.117434    0.874852
C     -1.814987    0.698835   -1.072484
C     -4.814839   -2.482185    0.881171
C     -4.675296   -0.132326    0.244157
C     -5.618395    0.178451    1.165422
C     -2.069771    1.771162   -0.129689
C     -4.060199    0.822150   -0.729129
O      8.501440    1.335838    1.942094
O     -4.378396   -3.786933    0.699837
O     -6.024369    1.484699    1.335501
O     -1.151622    2.495180    0.416947
O     -4.863889    1.367697   -1.658962
O     -3.413112    1.844612    0.044257
H      1.959676    1.737077    0.117483
H      2.645783    0.802901    1.448213
H      3.702703    1.736139    0.334084
H      7.828991   -1.557455   -0.050198
H      8.731673   -0.029698    0.049485
H      7.379497   -0.217320   -1.168570
H     -6.791783    1.702380   -0.988035
H     -5.628528    3.043358   -0.856669
H     -6.260713    2.586749   -2.465804
H      5.912282   -1.561519   -0.737595
H      4.539736   -1.974014    0.353005
H      0.412830    0.466513    0.417371
H     -0.113794   -1.140317   -0.069288
H      3.907069   -1.215983   -2.034411
H      4.631674    0.347756   -1.689472
H      1.794403   -1.422154   -1.665972
H      4.881405    0.245191    1.635330
H      0.007989    1.091385   -2.166739
H     -0.574531   -0.589484   -2.285836
H     -6.191494   -2.958418    2.411843
H     -6.907807   -0.554800    2.658923
H     -3.520181   -1.750702   -0.613773
H     -3.025179   -0.659631   -2.181750
H      6.608881    1.451893    2.641198
H     -3.579266   -4.136888    1.247362
H     -6.720128    1.785118    2.000981
