54

C      2.568113   -0.758719   -0.301629
C      5.841933    0.899512   -1.097357
C     -2.699811   -1.054070   -1.932345
C      3.426392    1.428351   -2.338700
C      1.599110    0.696158    2.002633
C      2.061808    1.307793   -1.745421
C      1.633678    1.284791    0.657645
C      4.131874    0.185406   -2.605298
C      0.224029    0.811013    2.565319
C     -6.457834   -0.012136    1.771023
C     -5.476364   -0.522845    2.596258
C     -4.881050    0.190292   -0.001090
C     -1.734879    0.597063    1.069831
C      5.981341   -1.348921   -2.307562
C      2.073173    0.630693   -0.403431
C      5.271645   -0.084534   -2.031450
C     -0.747855    0.045132    1.710063
C     -6.191403    0.352227    0.471955
C     -3.888259   -0.310609    0.782668
C     -4.185243   -0.664679    2.075067
C     -0.785963   -1.385045    1.495650
C     -2.502124   -0.466650    0.313794
O      7.073458   -1.608708   -1.759648
O     -7.203943    0.868221   -0.344973
O     -3.195199   -1.169317    2.878228
O      0.030532   -2.244913    1.978189
O     -2.298075   -0.114816   -1.021495
O     -1.865537   -1.631521    0.681019
H      3.573601   -0.736810    0.205331
H      2.616389   -1.216483   -1.315305
H      1.940023   -1.396547    0.346622
H      6.765330    0.468979   -0.662253
H      6.149543    1.841780   -1.597127
H      5.170655    1.096412   -0.226431
H     -2.072130   -1.977685   -1.705024
H     -2.295536   -0.716227   -2.930623
H     -3.748219   -1.324838   -1.959989
H      3.313937    1.957461   -3.333418
H      4.009837    2.151944   -1.726884
H      1.923995   -0.341023    2.055630
H      2.274824    1.332181    2.646821
H      1.432472    0.657501   -2.399242
H      1.553848    2.275473   -1.663069
H      1.289420    2.308845    0.475825
H      3.686413   -0.517061   -3.305686
H     -0.062735    1.873220    2.613524
H      0.127193    0.394652    3.587997
H     -7.471901    0.106779    2.154806
H     -5.699781   -0.807283    3.622754
H     -4.727308    0.507334   -1.012179
H     -2.026104    1.662246    1.036602
H      5.565107   -2.070489   -2.990001
H     -7.753861    0.216618   -0.900259
H     -3.338558   -1.454867    3.822637
