53

C      1.893911   -1.904245   -1.171505
C      7.689394    0.974385    0.838792
C      4.368474   -0.350429   -0.433036
C     -0.291193   -0.346797   -0.130998
C      3.392215   -0.863533    0.647484
C      5.695201   -0.179238    0.152658
C      1.056925   -0.302442    0.434384
C     -6.224778    2.257974   -0.750644
C     -4.898167    1.893783   -0.720372
C     -1.252683   -0.810976    0.935987
C     -6.733351    0.369635    0.580318
C     -3.534602   -1.357064    1.580064
C      5.806379    2.218706   -0.311774
C      2.076776   -1.008943   -0.026747
C      6.323204    0.956146    0.201731
C     -7.173856    1.492540   -0.093071
C     -5.420559    0.004997    0.613083
C     -4.971130   -1.179672    1.325985
C     -4.455748    0.763199   -0.042204
C     -2.731924   -1.853884   -0.714023
C     -2.681487   -0.884217    0.426138
O      5.704218    3.175653    0.710449
O     -8.495477    1.854159   -0.122436
O     -5.772549   -2.044195    1.724707
O     -2.365271   -3.040570   -0.565402
O     -3.185143   -1.449454   -1.947799
O     -3.141740    0.371228    0.008457
H      1.164851   -2.735688   -0.961984
H      2.854606   -2.436010   -1.407708
H      1.606409   -1.398424   -2.109039
H      8.114713   -0.034743    0.904720
H      8.374477    1.582676    0.226026
H      7.621949    1.415947    1.842105
H      4.484343   -1.170483   -1.214850
H      3.911565    0.483994   -0.938870
H     -0.587347    0.715499   -0.371460
H     -0.399162   -0.915300   -1.055108
H      3.328979   -0.124236    1.464475
H      3.755202   -1.848027    1.009721
H      6.163963   -1.094983    0.570680
H      1.222997    0.351612    1.283029
H     -6.564580    3.130902   -1.274532
H     -4.177119    2.509252   -1.242430
H     -1.219296   -0.113469    1.793576
H     -0.943577   -1.824917    1.241202
H     -7.458139   -0.241061    1.099793
H     -3.250122   -0.722034    2.457715
H     -3.268966   -2.420188    1.779393
H      6.490431    2.683602   -1.078774
H      4.833250    2.157741   -0.813567
H      5.134061    2.817097    1.451466
H     -8.862812    2.471174    0.598925
H     -3.007716   -1.996677   -2.787739
