55

C      6.368162    1.154977    0.765648
C     -1.485687   -0.751740    2.965855
C     -3.813193    1.615030   -2.557839
C      6.162934    0.381563   -0.519314
C      4.714620   -0.148587   -0.454094
C      4.370284   -0.928896   -1.646203
C      3.021671   -1.521861   -1.677937
C      1.797293   -0.730238   -1.704394
C      1.481884    0.157487   -0.558586
C      1.427721   -0.595210    0.719327
C      0.390318   -1.666963    0.735340
C     -0.982103   -1.144150    0.546201
C     -3.159915    0.600265   -0.045190
C     -4.488755    0.859050   -0.386033
C     -2.921034    0.100319    1.212429
C     -5.487954    0.611429    0.525600
C     -6.861383    0.891561    0.141187
C     -5.121685    0.109240    1.756285
C     -1.475428   -0.174431    1.565531
O     -7.403507    2.134434    0.378569
O     -7.555892    0.012921   -0.403755
O     -6.069992   -0.111711    2.583241
O     -0.846361    1.046532    1.598879
O     -4.847636    1.364360   -1.626336
O     -3.876114   -0.132704    2.073534
H      7.055911    0.590084    1.444229
H      6.763407    2.170367    0.550857
H      5.428810    1.296661    1.339071
H     -0.490081   -0.822604    3.404326
H     -2.090569   -0.061865    3.597777
H     -1.989846   -1.740476    3.003115
H     -3.175291    0.689979   -2.672023
H     -4.268269    1.786972   -3.575992
H     -3.154405    2.443590   -2.296968
H      6.863468   -0.458787   -0.558250
H      6.275866    1.053954   -1.376024
H      4.108666    0.750297   -0.337547
H      4.681143   -0.766440    0.463812
H      5.137836   -1.754029   -1.778224
H      4.528118   -0.278477   -2.571307
H      2.970891   -2.256665   -2.577352
H      2.917289   -2.304983   -0.824486
H      1.722857   -0.124546   -2.689662
H      0.887098   -1.416832   -1.811198
H      0.392758    0.547239   -0.748826
H      2.033807    1.108444   -0.545503
H      1.266575    0.161994    1.537083
H      2.400116   -1.124341    0.947374
H      0.487497   -2.284250    1.673532
H      0.587715   -2.383393   -0.108129
H     -1.091517   -0.715427   -0.461473
H     -1.680015   -2.036569    0.543311
H     -2.395365    0.807190   -0.785618
H     -8.397098    2.334997    0.381367
H     -1.115617    1.655237    0.844786
