31

C      3.414960   -1.921904   -2.266996
C     -3.429595    0.028244   -1.906787
C      1.074118    0.845793    2.560606
C      2.384083    0.332590    1.983767
C     -2.051791    0.024330   -1.913366
C     -3.430927    0.459369    0.424214
C     -4.127812    0.245288   -0.740652
C      0.081340    0.648546    1.484092
C      2.228393    0.459235    0.483657
C     -2.034863    0.453121    0.405191
C     -1.310737    0.238716   -0.746390
C     -1.316955    0.665240    1.559586
C      0.748609    0.429479    0.306818
C      2.888867   -0.662670   -0.212199
O     -5.509109    0.256119   -0.696713
O     -1.915609    0.865293    2.634863
O      3.569906   -1.482036    0.455561
O      2.801097   -0.868795   -1.577627
O     -0.003974    0.230603   -0.776406
H      4.042639   -2.574359   -1.610857
H      4.156248   -1.445393   -2.973530
H      2.736567   -2.567828   -2.826889
H     -3.957017   -0.146375   -2.856549
H      0.786341    0.290390    3.478857
H      1.176500    1.927244    2.766159
H      3.225584    0.925334    2.368443
H      2.517900   -0.732255    2.290272
H     -1.474149   -0.146788   -2.832438
H     -3.944989    0.636948    1.378953
H      2.650756    1.452624    0.199820
H     -5.976382    1.133897   -0.843459
