62

C      7.099124    0.621891    2.005300
C      7.514955    0.690915   -0.405877
C     -0.986009   -2.634763   -0.115899
C     -1.391147   -1.246722   -2.074966
C     -6.264256   -0.976760   -0.459746
C      2.026053    2.638761   -0.034261
C      3.379981    2.771605    0.190018
C      4.461860   -0.767677    0.283964
C     -5.783949   -0.568918    0.927627
C      5.754076   -0.676167    0.497228
C     -5.373064   -0.224432   -1.427568
C     -1.060167    1.637510   -0.568232
C     -3.420685   -1.170969    0.319534
C     -3.423607    1.158184   -1.101323
C      1.491283    1.367250   -0.151371
C      3.626126    0.407261    0.174903
C      0.187523    0.890722   -0.375559
C      4.200117    1.657190    0.297914
C     -2.086704   -0.495251    0.232909
C      2.272462    0.242014   -0.050090
C      0.218517   -0.482470   -0.402381
C     -3.853406    0.866283    1.589418
C      6.407042    0.638569    0.634669
C     -1.078015   -1.200471   -0.625019
C     -2.281251    0.941697   -0.092109
C     -4.423026   -0.066595    0.615815
N      1.493682   -0.854961   -0.202928
N     -2.821870    1.546467    1.148461
N     -4.677440    0.720533   -0.601376
O     -4.314631    1.062248    2.878798
O      5.547548    1.736731    0.519883
H      6.361830    0.328945    2.787171
H      7.849408   -0.194546    1.953801
H      7.568607    1.581261    2.226758
H      7.220485    0.176593   -1.338103
H      8.425493    0.197899    0.025516
H      7.746560    1.729136   -0.646565
H     -2.000865   -3.060634   -0.126122
H     -0.359601   -3.251306   -0.792923
H     -0.535849   -2.669626    0.899158
H     -0.798134   -2.103631   -2.513964
H     -1.003854   -0.347491   -2.572210
H     -2.439109   -1.474539   -2.313031
H     -7.335777   -0.755396   -0.600998
H     -6.023515   -2.048574   -0.577526
H      1.386342    3.500469   -0.118602
H      3.822362    3.753967    0.285276
H      3.966569   -1.737400    0.180358
H     -6.384019    0.232061    1.364542
H     -5.716569   -1.465699    1.578442
H      6.332757   -1.606350    0.570015
H     -6.067701    0.374012   -2.084223
H     -4.743736   -0.864288   -2.040133
H     -1.127875    1.867820   -1.664722
H     -1.001885    2.624575   -0.041546
H     -3.479881   -1.863684    1.210133
H     -3.692569   -1.771399   -0.546222
H     -3.153909    0.804556   -2.102665
H     -3.484269    2.285165   -1.191992
H     -1.658625   -0.533161    1.281211
H      1.841926   -1.837060   -0.169078
H     -3.955717    1.835365    3.450504
