31

C      3.921090   -0.556400   -1.899671
C     -3.854972   -1.687406   -0.113988
C      1.474387    1.937631    0.680610
C      2.212060    1.169961    1.738830
C     -2.572115   -1.925255    0.341631
C     -3.281377    0.574153   -0.473963
C     -4.233802   -0.426128   -0.532066
C      0.246835    1.091152    0.500315
C      1.938558   -0.263759    1.349025
C     -1.997317    0.348309   -0.020831
C     -1.618251   -0.914690    0.397732
C     -1.034782    1.335589    0.043514
C      0.524782   -0.202001    0.894603
C      2.857414   -0.720787    0.281375
O     -5.533189   -0.200374   -0.989937
O     -1.338537    2.497971   -0.327672
O      3.547818   -1.774776    0.447677
O      3.018600   -0.059994   -0.915827
O     -0.396433   -1.147574    0.833184
H      3.887904    0.040959   -2.809825
H      4.963079   -0.604146   -1.522357
H      3.648064   -1.611999   -2.160440
H     -4.602057   -2.474035   -0.159084
H      2.022291    2.071721   -0.251317
H      1.225287    2.928472    1.082382
H      3.290478    1.411347    1.776750
H      1.703810    1.343035    2.704800
H     -2.295411   -2.931412    0.667214
H     -3.557941    1.574947   -0.798239
H      2.050543   -0.902262    2.232455
H     -6.216816    0.077750   -0.269953
