47

C     -2.252840    2.566713   -1.289487
C      3.447998   -0.169773   -0.955728
C      3.525917    1.165670    1.092262
C     -0.444818   -2.590954    1.259743
C     -1.294107    2.232769   -0.142431
C     -2.282925   -1.214434   -0.763011
C     -1.080495   -1.962340   -1.111170
C      1.945511   -0.750033    0.880166
C     -3.472958    0.503613    0.432874
C     -2.121262   -0.109141    0.232037
C     -1.021199    0.805574   -0.036838
C      0.860371   -0.932100   -0.129118
C      0.271129    0.457726   -0.176980
C      1.458843    1.260177   -0.365001
C      2.647162    0.420047    0.155158
C     -0.002232   -2.081792   -0.065223
O     -3.524492    1.545044    1.352745
O      1.612988    2.470701    0.209387
O      0.795258   -3.165140   -0.600284
H     -3.232102    2.934886   -0.946513
H     -2.439904    1.708779   -1.957093
H     -1.838175    3.448102   -1.872976
H      3.429291   -1.285073   -0.984723
H      3.128533    0.167967   -1.971549
H      4.539697    0.086284   -0.821655
H      4.149840    0.382089    1.617858
H      4.241087    1.794794    0.559910
H      2.982044    1.669443    1.917210
H      0.101483   -3.546031    1.552089
H     -1.514110   -2.913281    1.308168
H     -0.165726   -1.917362    2.123443
H     -1.756941    2.714178    0.746427
H     -0.370908    2.880968   -0.262172
H     -3.072380   -1.906376   -0.352625
H     -2.736269   -0.795440   -1.692246
H     -1.389850   -2.985836   -1.475010
H     -0.616305   -1.493980   -2.025834
H      2.607612   -1.618147    0.934795
H      1.615068   -0.435262    1.870709
H     -4.177598   -0.267290    0.910546
H     -4.020634    0.729247   -0.507452
H     -1.882373   -0.591345    1.234295
H      1.417012   -0.984333   -1.133857
H      1.649317    1.361716   -1.465947
H     -3.485231    1.195256    2.275425
H      2.500079    2.820787    0.312190
H      1.269595   -3.607067    0.127484
