47

C     -1.694313    3.224199   -0.694676
C      3.688154   -0.216610   -0.352308
C      2.972198    1.041124    1.604052
C      0.264379   -2.277229   -1.410471
C     -0.980902    2.056084   -1.269713
C     -2.472005   -1.187653   -0.722493
C     -1.718872   -2.150826    0.124502
C      1.808239   -1.084941    0.941039
C     -2.883312    0.425153    1.143467
C     -2.381209    0.256685   -0.263469
C     -1.019009    0.810110   -0.491088
C      0.322352   -0.931452    0.703903
C      0.143608    0.305623   -0.084161
C      1.449308    0.915148   -0.362770
C      2.471557    0.183600    0.473864
C     -0.240236   -2.145796   -0.001040
O     -2.820578    1.730423    1.616165
O      1.852225    0.798526   -1.687856
O      0.247259   -3.260953    0.702689
H     -1.497876    4.102357   -1.386910
H     -2.793878    3.109399   -0.734264
H     -1.300812    3.557600    0.284877
H      4.335419   -0.841094    0.269887
H      3.342352   -0.775014   -1.249465
H      4.192249    0.697101   -0.746817
H      3.936534    0.664151    1.998751
H      2.234480    1.149725    2.419465
H      3.143054    2.064848    1.191139
H     -0.192186   -1.590515   -2.124529
H      1.347434   -2.109272   -1.418305
H      0.111709   -3.337518   -1.744578
H     -1.487440    1.824048   -2.253974
H      0.035392    2.377781   -1.552899
H     -3.546606   -1.462213   -0.678769
H     -2.166584   -1.226494   -1.764523
H     -2.057952   -3.181169   -0.205185
H     -1.990543   -2.103376    1.180307
H      2.066110   -1.208915    2.012999
H      2.200248   -1.994256    0.430933
H     -3.985862    0.166691    1.211176
H     -2.424244   -0.258293    1.882780
H     -3.128263    0.788441   -0.921343
H     -0.143228   -0.895889    1.706928
H      1.417997    1.969345   -0.014444
H     -2.690928    1.703718    2.585487
H      2.307814    1.674085   -1.905166
H     -0.273234   -3.356488    1.556808
