39

C      4.721770    1.122681   -0.624695
C     -0.743165    1.759717    2.340425
C     -1.705062   -2.256907   -0.491113
C     -3.455776   -0.925535    0.546926
C      3.300009    1.190068   -0.316650
C      1.170781    0.336087    0.295219
C      0.293511   -0.556822    0.632627
C     -1.899903    1.976906    0.195904
C     -2.250046   -0.024419   -1.334660
C     -1.311661    1.189180    1.062154
C      2.568817    0.108980    0.017729
C     -2.436133    1.396684   -1.023703
C      3.251559   -1.164898    0.065848
C     -2.076373   -0.871847   -0.089051
C     -1.139891   -0.268247    0.908342
O     -3.065882    2.181428   -1.792540
O      2.631634   -2.206202    0.369001
O      4.596497   -1.303812   -0.213415
O     -1.410075   -0.844743    2.153684
H      5.343396    0.791085    0.248926
H      5.061210    2.176626   -0.882974
H      4.977227    0.517863   -1.509824
H     -0.407988    2.798235    2.053093
H     -1.542740    1.847299    3.078358
H      0.110571    1.155926    2.702769
H     -1.241612   -2.823255    0.353344
H     -2.645201   -2.831957   -0.728931
H     -1.068281   -2.329675   -1.383917
H     -3.581767    0.066139    1.067605
H     -3.488022   -1.692468    1.317071
H     -4.232669   -1.008756   -0.231140
H      2.814041    2.172267   -0.362485
H      0.798606    1.361831    0.216880
H      0.583488   -1.582955    0.729447
H     -1.983492    3.030892    0.384755
H     -1.444100   -0.185311   -2.073833
H     -3.178900   -0.383708   -1.829627
H      5.070056   -2.159621   -0.031544
H     -0.984433   -1.758756    2.118840
