39

C      4.971423    0.319523   -1.316239
C     -0.466103   -0.348637    2.729118
C     -2.223712   -1.479246   -0.474155
C     -1.648529    0.340801   -1.998648
C      3.587466    0.766628   -1.002973
C      1.324718    0.502826   -0.309252
C      0.250887   -0.118752    0.110571
C     -2.686597    0.498097    2.117926
C     -3.415538    0.722055   -0.344168
C     -1.437385    0.232678    1.763121
C      2.624682   -0.065021   -0.576585
C     -3.567499    1.064693    1.110844
C      2.973987   -1.448679   -0.424309
C     -2.116732    0.005242   -0.598376
C     -1.050790    0.542260    0.361383
O     -4.474683    1.857685    1.468096
O      2.159309   -2.308004   -0.035109
O      4.259780   -1.955663   -0.699213
O     -1.026191    1.902128    0.213962
H      5.041699   -0.365844   -2.171178
H      5.541631    1.238746   -1.616476
H      5.522909   -0.050702   -0.418638
H     -0.891376   -0.247396    3.726342
H     -0.354471   -1.428208    2.467040
H      0.541551    0.102349    2.611330
H     -3.225650   -1.798205   -0.847880
H     -1.482931   -1.938059   -1.160044
H     -2.128011   -1.855210    0.565388
H     -2.524521    0.711290   -2.603033
H     -1.269233   -0.551884   -2.521985
H     -0.926164    1.169044   -1.975654
H      3.311957    1.815880   -1.115906
H      1.154095    1.589389   -0.458831
H      0.311397   -1.173553    0.285835
H     -3.041652    0.301254    3.121012
H     -3.460464    1.690406   -0.889374
H     -4.305925    0.121617   -0.610512
H      4.631368   -2.744579   -0.166574
H     -0.484705    2.383051    0.873494
