39

C     -4.731969   -1.328817   -0.122223
C     -1.953202   -1.334883    0.407642
C     -2.509800   -0.601830   -0.730182
C     -1.362015   -0.560052    1.507444
C      4.972935   -0.340385   -1.186576
C      4.892686   -0.712961    0.117522
C      1.024342    0.190489    1.667338
C      3.135380    1.091803   -0.988129
C     -4.345546    0.187763   -2.188073
C     -3.819539   -0.574728   -1.014168
C     -0.240011    0.343389    1.193006
C      4.111784    0.554540   -1.756305
C      3.003985    0.746933    0.351037
C      3.872205   -0.145198    0.909247
C      1.865297    1.270797    1.146812
C     -0.241348    1.571663    0.412139
O     -3.281518    0.787731   -2.834460
O      4.285090    0.871327   -3.113424
O      3.858266   -0.556623    2.229483
O     -1.234557    2.104171   -0.213243
O      1.032998    2.107375    0.446007
H     -4.539625   -2.418880   -0.122710
H     -4.632461   -0.994873    0.948107
H     -5.788692   -1.195889   -0.466427
H     -1.282240   -2.169331    0.046137
H     -2.829830   -1.918980    0.846292
H     -1.861240   -0.059282   -1.438677
H     -2.222675    0.043497    1.972130
H     -1.091313   -1.238464    2.363514
H      5.771377   -0.791577   -1.785105
H      5.590789   -1.434315    0.566842
H      1.222928   -0.660615    2.320287
H      2.441186    1.793992   -1.390568
H     -4.945244   -0.464056   -2.829145
H     -5.009811    0.997055   -1.774452
H      2.263133    1.819555    2.061104
H     -3.602757    1.578182   -3.316522
H      4.912085    1.670650   -3.275893
H      3.268928   -0.229174    2.951018
