42

C     -4.885453    2.874131   -0.457637
C     -1.072787   -2.260209    1.528795
C      4.827699    3.209705    0.366968
C      1.763191    1.159841    0.211941
C      4.062546    0.476015    0.143756
C     -0.981438    0.397646   -0.053066
C     -1.548039   -2.219285   -0.907422
C     -4.147483    1.716758    0.109092
C      3.108745    1.456621    0.229915
C      1.348774   -0.148812    0.105006
C     -0.058043   -0.527520    0.070316
C      3.673112   -0.834399    0.037222
C     -2.580827   -1.166473   -1.044987
C     -2.436184   -0.024909   -0.084087
C      2.318919   -1.151862    0.017774
C      1.883323   -2.534499   -0.074456
C     -0.511679   -1.946593    0.161441
O     -4.457727    1.331234    1.266039
O      4.580593   -1.882600   -0.054165
O     -3.835084   -1.747413   -0.827518
O      2.801719   -3.400372   -0.151992
O      3.496738    2.788295    0.338578
O     -3.149046    1.079408   -0.609637
O      0.556843   -2.835681   -0.074108
H     -5.610987    2.459697   -1.192010
H     -5.420800    3.424820    0.333762
H     -4.213627    3.544138   -1.044110
H     -0.396457   -2.954866    2.064670
H     -2.067287   -2.745949    1.487910
H     -1.108361   -1.341401    2.155611
H      5.223274    3.021636    1.379816
H      4.836974    4.302461    0.153446
H      5.476875    2.687264   -0.377673
H      1.028211    1.968106    0.289403
H      5.120112    0.717261    0.158279
H     -0.721092    1.435144   -0.136424
H     -1.945422   -3.241669   -0.745642
H     -0.983804   -2.278827   -1.882236
H     -2.619339   -0.739479   -2.087177
H     -2.825275   -0.223981    0.911888
H      5.567996   -1.646222   -0.039583
H     -4.099404   -2.197158   -1.677695
