41

C     -2.949927    2.532676    1.168775
C     -2.765578   -3.604885   -2.230210
C      4.537363   -0.327007    0.796379
C     -1.607301    0.213773    1.844596
C     -2.283244   -0.736525    0.837095
C      4.432144    0.157818   -0.477816
C      2.144749   -0.240678    0.953038
C     -1.185924    3.465791   -0.089193
C     -1.740065    2.366510    0.689748
C      3.390081   -0.526423    1.512829
C     -0.902063    1.159181    0.918291
C     -1.053807   -0.992519   -0.049033
C      2.010702    0.245595   -0.319851
C      3.198631    0.435089   -1.016705
C     -0.595153    0.405591   -0.335555
C      0.731370    0.538694   -0.913695
C     -1.578517   -1.677766   -1.259591
O     -0.047243    3.382886   -0.560960
O      3.481024   -1.024905    2.825712
O      3.142282    0.920024   -2.299035
O      0.824199    0.980733   -2.142670
O     -1.423532   -1.162693   -2.369001
O     -2.231833   -2.879387   -1.132215
H     -3.527259    1.853814    1.757364
H     -3.472752    3.480625    0.959872
H     -3.601061   -3.088712   -2.715035
H     -3.159889   -4.557625   -1.798385
H     -2.007329   -3.871249   -2.972486
H      5.517033   -0.557893    1.252992
H     -0.876284   -0.471552    2.378207
H     -2.284117    0.640062    2.568360
H     -2.654727   -1.641895    1.308485
H     -3.008766   -0.195159    0.202695
H      5.317565    0.320487   -1.054290
H      1.317106   -0.440651    1.607549
H     -1.764542    4.382187   -0.270908
H      0.052208    1.477702    1.398600
H     -0.375723   -1.611051    0.525934
H     -1.328303    0.794927   -1.120540
H      4.373503   -1.229083    3.225290
H      3.954978    1.083490   -2.865869
