67

C      7.795449    0.821196   -2.156218
C     -8.514749    2.570080   -2.542702
C      0.539189    1.078463    0.666847
C      1.512439    0.803449    1.781266
C     -0.681476    0.158434    0.732882
C      2.031859   -0.591533    1.782570
C     -1.433255    0.299911    1.986665
C      2.738189   -0.945801    0.518291
C     -2.608888   -0.548641    2.125681
C      6.758048   -1.097672    0.089413
C      7.442492    0.192191    0.239845
C      3.933489   -0.066530    0.259297
C      5.804894   -1.304647   -1.025246
C     -3.842862   -0.461355    1.383899
C     -8.077163    0.086889   -1.106634
C      8.383932    0.643094   -0.808190
C      4.635686   -0.416534   -0.981704
C     -7.779235   -1.088547   -0.412562
C     -3.957437   -0.534440   -0.090520
C     -7.048599    0.941432   -1.415283
C     -5.441607   -0.488708   -0.373498
C     -5.724094    0.654878   -1.048931
C     -6.473935   -1.362378   -0.055807
C     -4.477310    1.360376   -1.268886
O      9.504270   -0.209168   -0.910264
O      4.221998    0.056468   -2.038263
O     -8.833404   -1.938692   -0.111263
O     -6.140389   -2.507482    0.626691
O     -4.425702    2.472763   -1.878654
O     -7.276576    2.114559   -2.096997
O     -3.494899    0.615239   -0.720667
H      8.275265    1.718564   -2.691778
H      8.074499   -0.023366   -2.849807
H      6.726226    1.072834   -2.186138
H     -8.841997    2.083760   -3.493134
H     -8.492890    3.694449   -2.649044
H     -9.258004    2.375088   -1.733440
H      0.153825    2.108695    0.802681
H      0.989197    0.945629   -0.316760
H      1.032378    1.070713    2.753931
H      2.359391    1.505111    1.669968
H     -1.167095    0.256835   -0.222051
H     -0.265529   -0.909214    0.735990
H      1.267369   -1.351354    2.045114
H      2.801411   -0.643648    2.609878
H     -1.622118    1.380409    2.267831
H     -0.701189   -0.000125    2.821152
H      3.033723   -2.010040    0.483490
H      1.990191   -0.829669   -0.316057
H     -2.254981   -1.655657    2.096829
H     -2.930667   -0.529287    3.249962
H      6.179074   -1.271631    1.056353
H      7.502336   -1.958858    0.130169
H      8.030669    0.132981    1.211746
H      6.661029    0.978627    0.469831
H      4.608854   -0.009409    1.123235
H      3.531955    0.982794    0.126870
H      5.468126   -2.398475   -0.965797
H      6.298010   -1.271679   -2.022830
H     -4.510126   -1.325496    1.767577
H     -4.477738    0.437285    1.695257
H     -9.076709    0.345510   -1.406392
H      8.856803    1.642423   -0.530027
H     -3.545791   -1.472583   -0.526737
H      9.822278   -0.405335    0.020642
H     -8.742690   -2.807885    0.380672
H     -6.845435   -3.165292    0.876113
