39

C     -4.176793    1.635704   -0.681409
C     -5.822138   -0.103525    0.352848
C      5.428633    1.022560    0.871777
C      5.110883   -0.301985    0.827515
C     -3.485889   -0.571376    0.031614
C     -1.136436   -0.997076    0.363368
C      1.153124   -1.536742   -0.284872
C      3.224756    1.583369    0.198419
C     -4.462318    0.304245   -0.099880
C     -0.307019   -1.687071   -0.679023
C      4.488412    1.979625    0.557485
C     -2.120709   -0.186992   -0.412654
C      2.888455    0.246615    0.149195
C      3.818217   -0.703697    0.460004
C      1.554489   -0.123251   -0.227655
C     -0.610938   -0.925224   -1.911253
O      4.834993    3.313544    0.609848
O      3.570232   -2.078715    0.437735
O      0.714296    0.761550   -0.513242
O      0.108754   -0.684564   -2.924706
O     -1.911181   -0.475878   -1.780759
H     -3.727788    2.296661    0.073912
H     -5.090219    2.122983   -1.088687
H     -3.467746    1.574040   -1.545140
H     -6.126193   -1.058470   -0.137124
H     -5.726381   -0.338631    1.439995
H     -6.570091    0.696033    0.237844
H      6.421345    1.343867    1.153543
H      5.841496   -1.051418    1.071956
H     -3.649213   -1.567320    0.455325
H     -0.522584   -0.373131    1.041466
H     -1.626700   -1.813683    0.952793
H      1.310546   -1.960449    0.748417
H      1.744756   -2.161547   -0.970907
H      2.477529    2.352665   -0.051721
H     -0.583097   -2.737739   -0.837084
H     -2.012884    0.911244   -0.280824
H      4.191475    4.055884    0.391357
H      4.253927   -2.762104    0.665696
