41

C      4.837884   -0.452635    0.669309
C      4.778267    0.726163   -0.028776
C     -1.693947   -1.549133   -1.577219
C     -0.617319   -1.346054   -0.521479
C      2.469667   -0.479307    0.649845
C     -0.272129    1.135382   -0.333521
C     -3.110752    1.174388    0.526959
C     -2.815925   -1.193198    0.923967
C      3.676645   -1.072829    1.018548
C      2.344442    0.693305   -0.045510
C      3.579934    1.293084   -0.382056
C      1.141697    1.362896   -0.446749
C     -2.626727   -0.351596   -1.418654
C     -0.905463   -0.168708    1.675608
C     -0.913218   -0.054919    0.193954
C     -2.442561   -0.031296    0.013290
O     -2.913065    2.346523   -0.157492
O      3.635980   -2.270554    1.725483
O      3.645770    2.486380   -1.086985
O      1.402288    2.507344   -1.101142
O     -3.928561   -0.784896   -1.713296
O     -0.138386    0.418268    2.443757
O     -1.911158   -1.044000    2.013032
H      5.769543   -0.922439    0.961198
H      5.737974    1.175819   -0.279988
H     -2.201127   -2.512099   -1.470335
H     -1.282431   -1.475213   -2.612707
H     -0.609042   -2.188941    0.204740
H      0.352417   -1.335482   -1.068292
H      1.588518   -1.002013    0.949698
H     -0.681392    2.016497    0.315337
H     -0.719215    1.452581   -1.340849
H     -4.217403    0.973466    0.496099
H     -2.887972    1.259313    1.613079
H     -3.861497   -1.019556    1.251772
H     -2.659298   -2.173591    0.481693
H     -2.321425    0.483855   -2.043488
H     -2.981379    3.095797    0.501562
H      3.633561   -3.135112    1.209394
H      4.509966    2.931481   -1.338259
H     -4.393162   -0.968970   -0.871530
