54

C     -1.742424    6.418448    0.150310
C      6.233716   -2.853711   -1.132751
C     -1.084831    5.569474    1.241231
C     -3.458540   -4.578824   -0.124719
C     -3.602937   -3.289629    0.340778
C     -2.364938   -4.853722   -0.918423
C     -0.548184    3.344297    0.250639
C     -2.493509    3.590191    1.594817
C      2.549387    0.127592   -1.969183
C      5.283851   -1.815389   -0.666948
C     -1.385826    4.133216    1.026024
C     -2.696281   -2.293924    0.035034
C     -0.825044    1.997261    0.044130
C      3.405728   -0.386240   -0.820267
C     -1.456240   -3.859583   -1.225820
C     -2.786632    2.259491    1.403487
C     -1.940288    1.485456    0.626542
C     -1.612795   -2.574485   -0.753587
C     -1.983237    0.061042    0.247385
C     -0.792412   -0.177779   -0.597427
C     -2.835955   -0.912987    0.523120
C     -0.645634   -1.537624   -1.086454
C     -0.104290    0.936352   -0.726830
C      2.594994   -0.994433    0.231943
N      4.290317   -1.427897   -1.383394
O      5.527205   -1.276906    0.599630
O     -0.357611   -4.126230   -2.020228
O     -3.915500    1.743543    1.993780
O     -3.952342   -0.687650    1.315746
O      0.324582   -1.835453   -1.810075
O      1.914966   -0.267183    1.004707
O      2.544839   -2.387119    0.417718
S      1.343015    1.306417   -1.618423
H     -2.784170    6.599454    0.484862
H     -1.713311    5.876369   -0.828679
H     -1.198715    7.389865    0.032588
H      6.445861   -3.539087   -0.272484
H      7.185104   -2.355979   -1.455741
H      5.822053   -3.449588   -1.983388
H     -0.000049    5.737103    1.247568
H     -1.490361    5.841439    2.239125
H     -4.178719   -5.365965    0.119101
H     -4.453083   -3.050469    0.964960
H     -2.256624   -5.865894   -1.280438
H      0.327080    3.800255   -0.190935
H     -3.154094    4.218967    2.208091
H      3.350820    0.714048   -2.635124
H      2.316627   -0.674336   -2.685147
H      4.038937    0.435944   -0.491795
H      4.903304   -0.620443    1.022896
H     -0.177948   -5.046027   -2.402476
H     -4.507504    2.322322    2.561034
H     -4.067137   -1.061964    2.238256
H      2.164777   -2.742029    1.289335
