41

C     -5.335360   -0.820139    0.704804
C      4.131019   -2.063953    0.916312
C      2.665568    2.736210   -0.973671
C     -3.817001   -0.805054    0.905349
C      4.709488   -0.678751    0.907999
C     -1.347941    1.145081   -1.008299
C     -0.268802    2.159236   -0.596087
C     -1.698537   -1.253754   -0.348017
C      2.078325    1.362243   -0.967188
C     -3.180856   -1.225212   -0.402488
C     -1.045706    0.043919   -0.023402
C      0.824000    1.260250   -0.130928
C      3.069233    0.327822   -0.627014
O     -3.625108   -2.536021   -0.650728
O      3.371871   -0.634275   -1.412983
O      3.763016    0.312645    0.587672
O      0.343351   -0.030623   -0.100247
H     -5.667172   -1.864486    0.653955
H     -5.824167   -0.320021    1.560980
H     -5.587379   -0.268705   -0.225769
H      3.926521   -2.475304   -0.080409
H      3.255784   -2.136874    1.607795
H      4.917734   -2.731956    1.373348
H      2.838081    3.126308    0.061505
H      2.100445    3.452041   -1.600654
H      3.684865    2.661134   -1.425684
H     -3.621114   -1.569141    1.694109
H     -3.527126    0.200583    1.229800
H      5.100935   -0.467379    1.909817
H      5.579664   -0.688643    0.209717
H     -1.077723    0.862712   -2.052675
H     -2.346705    1.572461   -0.907106
H     -0.010600    2.839185   -1.406562
H     -0.703914    2.682589    0.299131
H     -1.393357   -1.987607    0.425969
H     -1.285281   -1.627467   -1.304420
H      1.752496    1.147030   -2.027205
H     -3.598843   -0.607130   -1.217230
H     -1.300516    0.429132    0.982276
H      1.126473    1.521014    0.919201
H     -2.975664   -3.049103   -1.184998
