40

C      2.927138    0.210564   -2.112897
C     -0.607629    2.334448    1.437352
C     -2.207151   -1.700823    1.064676
C     -1.047289   -1.809952   -1.066802
C      1.797112   -0.134019    0.167439
C      0.590582    0.155697   -0.378263
C      4.154557   -0.396065   -0.142951
C     -2.200638    2.060254   -0.371392
C     -2.850531   -0.234506   -0.758086
C      2.982423   -0.118777   -0.654745
C     -1.125237    1.539951    0.538515
C     -3.345383    1.055508   -0.202708
C     -0.660132    0.154929    0.419870
C      4.436243   -0.739039    1.233061
C     -1.673400   -0.817237   -0.072739
O     -3.615739    1.001887    1.158836
O      3.589897   -0.820939    2.144617
O      5.760073   -1.013129    1.631941
H      3.859579   -0.101650   -2.624727
H      2.107371   -0.352181   -2.620099
H      2.796204    1.303192   -2.278362
H     -0.946826    3.370975    1.535147
H      0.178309    1.987320    2.116981
H     -2.743233   -2.568728    0.645053
H     -2.903351   -1.153766    1.714361
H     -1.311810   -2.002064    1.654896
H     -0.135877   -2.266561   -0.665629
H     -1.801413   -2.630464   -1.167268
H     -0.936202   -1.363098   -2.065748
H      1.770266   -0.357851    1.198272
H      0.623328    0.383704   -1.431451
H      5.057057   -0.375837   -0.806407
H     -1.864878    1.965749   -1.435257
H     -2.498650    3.074896   -0.099972
H     -3.685891   -0.992566   -0.740795
H     -2.608048   -0.085777   -1.823247
H     -4.226018    1.371702   -0.793957
H     -0.372601   -0.175216    1.462764
H     -3.162939    1.718353    1.671567
H      5.900723   -1.478887    2.518153
