46

C      3.166750   -1.704241   -0.096544
C      6.631840    1.943360   -0.331273
C     -1.403732   -2.355022   -0.061467
C      0.791963   -0.278434   -0.732838
C      2.008076    0.441388   -0.225129
C     -5.188326   -0.432617    0.754243
C     -4.345964    1.606226   -0.165363
C     -3.948435   -1.015870    0.646141
C     -3.126165    0.994241   -0.259872
C     -0.378529   -0.140540    0.266061
C      3.776220    0.169351    1.518251
C      2.697310   -0.515796    0.788714
C      5.726629    0.777740    0.002221
C     -5.408076    0.869873    0.354680
C     -2.892841   -0.319553    0.135989
C     -6.705169    1.466277    0.417279
C     -1.568102   -0.877371   -0.156335
O      5.847433   -0.337948   -0.594636
O     -6.917794    2.782843    0.020927
O     -7.716134    0.810246    0.836864
O     -1.560862   -0.719664   -1.656286
O      4.758597    0.880148    0.924933
H      4.100065   -2.152047    0.362474
H      2.444916   -2.533040   -0.098545
H      3.317351   -1.383782   -1.141359
H      7.616629    1.758326    0.149555
H      6.213882    2.893205    0.058038
H      6.785109    1.938992   -1.429403
H     -0.401648   -2.644048   -0.361890
H     -1.614930   -2.723882    0.966537
H     -2.110579   -2.957674   -0.696005
H      0.428042    0.146821   -1.702580
H      0.999924   -1.366236   -0.863123
H      1.692874    1.302957    0.398578
H      2.721385    0.694960   -1.014868
H     -6.049803   -1.005694    1.140486
H     -4.514033    2.634224   -0.471131
H     -3.779508   -2.046455    0.963909
H     -2.297643    1.590095   -0.666733
H     -0.042075   -0.395691    1.301330
H     -0.637792    0.953682    0.315022
H      4.201542   -0.673998    2.206025
H      3.282872    0.841817    2.303911
H      1.930469   -0.891131    1.447893
H     -7.580385    3.379911    0.512309
H     -0.951353   -1.405948   -1.982729
