40

C      3.185580   -1.872181   -0.876196
C     -0.616848    2.234725    0.529330
C     -1.088787   -2.347126    0.408837
C     -1.602871   -0.358701    1.841250
C      1.850958    0.230483   -0.313813
C      0.746584   -0.407170   -0.522864
C      4.281367    0.173617   -0.264478
C     -2.444238    1.547943   -0.957834
C     -2.908955   -0.823680   -0.147960
C      3.138189   -0.422574   -0.464119
C     -1.112042    1.296636   -0.216621
C     -3.431332    0.506575   -0.493548
C     -0.636258   -0.071723   -0.461793
C      4.414085    1.546386    0.130601
C     -1.524282   -0.904999    0.460830
O     -4.348204    0.343517   -1.562589
O      3.518119    2.365467    0.341667
O      5.736944    2.038385    0.304457
H      4.222096   -2.222974   -1.032738
H      2.622946   -1.963492   -1.842229
H      2.693293   -2.508006   -0.121352
H      0.288045    2.177710    1.088832
H     -1.186208    3.177332    0.588747
H     -0.755826   -2.623405   -0.611893
H     -1.931132   -3.052228    0.642931
H     -0.314264   -2.559315    1.175524
H     -0.779541    0.293321    2.141968
H     -2.544784    0.239881    2.017687
H     -1.714068   -1.237952    2.541356
H      1.804291    1.239386   -0.054891
H      0.924033   -1.486564   -0.823011
H      5.192350   -0.424087   -0.411332
H     -2.737544    2.557194   -0.737326
H     -2.222591    1.415233   -2.025120
H     -2.852160   -1.429223   -1.083725
H     -3.645439   -1.322275    0.523963
H     -4.058760    0.973600    0.321537
H     -1.051564   -0.360818   -1.500213
H     -4.996421    1.079188   -1.560041
H      5.885236    2.961913    0.696327
