39

C      3.971579   -1.895276    0.095910
C      2.460644    1.534661   -0.751468
C      2.774537    0.111645   -0.527706
C      1.267115    1.980656    0.068586
C     -5.577024   -0.736592    1.011206
C     -4.927181    0.457706    1.188427
C     -0.638599    0.329004    0.402529
C     -3.702949   -1.576639   -0.103125
C      5.037114    0.381022    0.398046
C      3.861032   -0.392620   -0.048123
C      0.105975    1.149350   -0.342156
C     -4.972414   -1.791474    0.354219
C     -3.011582   -0.361491    0.064547
C     -3.631909    0.665038    0.717096
C     -1.655080   -0.266257   -0.469001
C     -0.442344    1.202865   -1.689995
O      6.183897    0.045970   -0.326345
O     -5.626097   -3.002877    0.171963
O     -3.080331    1.900803    0.950300
O     -0.014941    1.863802   -2.681649
O     -1.551261    0.382405   -1.716597
H      2.950424   -2.332135    0.182166
H      4.519956   -2.108831    1.017711
H      4.487241   -2.344476   -0.769762
H      2.152906    1.640605   -1.836536
H      3.342010    2.149908   -0.577038
H      1.958606   -0.589274   -0.815799
H      1.041858    3.023891   -0.235088
H      1.464894    1.963177    1.142084
H     -6.584299   -0.873421    1.387014
H     -5.421780    1.279797    1.710374
H     -0.454562    0.188786    1.453680
H     -3.222753   -2.416968   -0.625961
H      5.232974    0.071580    1.465951
H      4.820644    1.453151    0.414660
H     -1.303774   -1.349093   -0.691868
H      6.568836   -0.798662    0.012404
H     -6.186377   -3.170905   -0.642208
H     -2.196986    2.231170    0.693428
