38

C      3.725723   -0.089208    2.500413
C     -3.327101   -0.781895    2.105983
C      2.044318    0.553056   -2.554172
C      4.309695   -0.067861    1.133152
C     -2.166658   -0.086190   -2.049857
C     -0.799748    0.526013   -2.381025
C     -2.966405    0.694566    0.113720
C     -2.921521    0.572029    1.613690
C      1.345802    0.582158   -1.214841
C     -2.046044   -0.291617   -0.570234
C      0.051019   -0.158347   -1.328256
C      2.228699   -0.007989   -0.174534
O     -1.696375    0.894305    2.147366
O      1.829478   -1.020319    0.454741
O      3.466002    0.484082    0.149372
O     -0.748476   -0.037398   -0.200204
H      3.104710   -0.989617    2.705861
H      3.192168    0.852315    2.776674
H      4.583396   -0.154410    3.232728
H     -3.759612   -0.653203    3.130312
H     -4.090393   -1.274166    1.499034
H     -2.428277   -1.445911    2.270612
H      1.864231   -0.450675   -3.029670
H      3.149573    0.601779   -2.389473
H      1.722008    1.383959   -3.223309
H      5.291492    0.412836    1.151998
H      4.487400   -1.136668    0.821054
H     -2.238332   -1.038288   -2.603283
H     -2.941135    0.651258   -2.322990
H     -0.813990    1.629161   -2.192785
H     -0.503066    0.292292   -3.402959
H     -4.019230    0.594733   -0.221367
H     -2.644205    1.722635   -0.150266
H     -3.660249    1.304518    2.014973
H      1.164682    1.638245   -0.927028
H     -2.281426   -1.330541   -0.342913
H      0.203999   -1.192828   -1.648062
H     -1.712153    0.607857    3.105546
