38

C     -3.515891    1.309203   -0.883045
C     -4.095625    0.456722    0.187997
C      5.186353   -0.085525    0.491616
C      4.384467    0.998094    0.327844
C     -2.082987    1.562731   -0.546779
C      3.259904   -1.475013    0.317582
C     -1.892694   -0.502289    0.793460
C      0.121998    0.616698   -0.196861
C     -4.046776   -1.133791    1.948593
C     -3.361853   -0.343686    0.925256
C      4.601375   -1.343987    0.484714
C      2.410993   -0.372701    0.146743
C      3.022316    0.861350    0.158320
C      0.983474   -0.553914   -0.026141
C     -1.535621   -0.559502   -1.600022
C     -1.337185    0.238109   -0.386115
O     -5.288794   -1.069877    2.137917
O      5.458691   -2.427415    0.655603
O      2.269362    1.996107   -0.002265
O      0.548586   -1.738712   -0.020185
O     -2.084574   -1.707116   -1.605875
O     -1.102599   -0.040334   -2.817832
H     -4.027521    2.304652   -0.919816
H     -3.573897    0.790710   -1.870991
H     -5.178870    0.514142    0.351388
H      6.258784    0.060203    0.623129
H      4.817049    1.993389    0.329248
H     -1.528556    2.147748   -1.292956
H     -2.016133    2.064243    0.448501
H      2.800185   -2.453251    0.311503
H     -1.703593   -1.590945    0.645025
H     -1.388919   -0.219870    1.751922
H      0.159100    1.347502    0.645380
H      0.406712    1.172503   -1.110717
H     -3.509508   -1.824439    2.604872
H      5.185047   -3.380172    0.672393
H      2.714309    2.898523    0.005832
H     -1.317108   -0.510089   -3.685238
