48

C     -1.931047    2.779643   -0.771478
C     -4.728649    0.389242   -0.425285
C      5.258427    1.499301    0.462457
C      5.325936    0.358711   -0.297133
C     -1.323902   -2.828283    0.481192
C     -0.239593   -2.195490   -0.366725
C      2.850040    1.421184    0.222063
C      0.343885    0.095073   -0.870843
C     -1.769735   -0.381143    2.040083
C      4.011685    2.019194    0.713753
C      2.918563    0.288742   -0.532303
C      4.197162   -0.233491   -0.782614
C      1.744635   -0.364670   -1.064888
C     -2.446728   -1.825000    0.195804
C      0.430588   -0.693940    1.458141
C     -2.442504    0.620497   -0.053472
C     -0.298670   -0.749233    0.160740
C     -1.698458   -0.515393    0.512995
O      3.874840    3.162099    1.468987
O      4.313832   -1.390585   -1.549986
O      1.946123   -1.423495   -1.758529
O     -3.517447   -2.004733    1.028783
O      1.559792   -1.122246    1.777148
O     -1.993336    1.886540    0.268228
O     -3.747490    0.535018    0.526243
O     -0.421527   -0.031202    2.333327
H     -1.550189    3.738407   -0.363909
H     -1.310971    2.451919   -1.620802
H     -2.923010    3.026768   -1.205312
H     -4.665502    1.303094   -1.091356
H     -5.739842    0.464199    0.024553
H     -4.623725   -0.533408   -0.999741
H      6.161636    1.987120    0.859397
H      6.309964   -0.073706   -0.510528
H     -1.597569   -3.838295    0.135784
H     -1.001087   -2.787853    1.525878
H      0.753667   -2.640979   -0.166594
H     -0.514838   -2.152125   -1.431172
H      1.903771    1.871629    0.453940
H     -0.181520   -0.014619   -1.844287
H      0.414069    1.161666   -0.621265
H     -2.024765   -1.339471    2.526310
H     -2.418171    0.446835    2.353800
H     -2.637699   -1.849814   -0.874388
H     -2.631861    0.519277   -1.134443
H      4.696479    3.631610    1.847396
H      5.237223   -1.755357   -1.720817
H     -3.872482   -2.913236    0.863301
