39

C      5.051624    1.795591    0.320708
C      2.120667   -0.192435   -0.867458
C      3.008925    0.613483   -0.042844
C      1.380149   -1.280130   -0.215433
C     -5.651975    0.400078   -0.509867
C     -5.250763   -0.948382   -0.593002
C     -1.034523   -1.413518    0.292215
C     -3.682124    0.857324    0.818538
C      4.477726    0.562436   -1.920326
C      4.226010    0.982720   -0.615820
C      0.214956   -0.935733    0.633361
C     -4.870289    1.256479    0.184043
C     -3.284744   -0.470880    0.735332
C     -4.064961   -1.342583    0.043869
C     -1.988621   -0.931377    1.302245
C      0.071031   -0.110811    1.787937
O      4.712922    0.169964   -3.138006
O     -5.202648    2.635032    0.325877
O     -3.749603   -2.715071   -0.076887
O      0.936028    0.521567    2.470722
O     -1.309672   -0.091404    2.123264
H      4.620894    2.802055    0.340391
H      5.040247    1.285276    1.329250
H      6.123432    1.776737   -0.000065
H      1.325781    0.512554   -1.303912
H      2.636950   -0.518002   -1.824943
H      2.815830    0.941439    0.966422
H      1.122136   -2.108974   -0.920797
H      2.102321   -1.815262    0.501648
H     -6.584237    0.733938   -0.987528
H     -5.828132   -1.657732   -1.119723
H     -1.238754   -1.997857   -0.569583
H     -3.068618    1.534798    1.367262
H      5.730543    0.201286   -1.581443
H      5.132277    1.763597   -2.212994
H     -2.263898   -1.848113    1.972543
H      4.938036   -0.813687   -3.175475
H     -5.756239    2.907312    1.116618
H     -2.958686   -3.061717    0.381072
