41

C      6.589445    0.354827   -0.328756
C      1.869279    0.651614   -0.079210
C      2.842743    0.428571   -0.930323
C      0.514591    0.101387   -0.278588
C      4.199783    1.008762   -0.683965
C     -0.458031    0.334021    0.587544
C     -2.010764   -1.139107   -0.670671
C     -2.774159    2.026660    1.289150
C      5.183209   -0.147914   -0.579433
C     -1.824140   -0.167520    0.472345
C     -2.906407    0.848443    0.393197
C     -3.252451   -1.944647   -0.417509
C     -4.198259    0.108632    0.641262
C     -4.452679   -1.165937   -0.024988
O     -1.611581    2.705503    1.000093
O      4.857982   -0.983981    0.494760
O     -2.934960   -2.962439    0.481890
O     -4.996131    0.616615    1.405703
O     -5.231792   -1.987093    0.822825
H      6.562962    1.194455    0.384673
H      7.159451   -0.523393    0.090136
H      7.045107    0.611910   -1.305783
H      2.070776    1.256705    0.791789
H      2.642137   -0.177094   -1.802653
H      0.273501   -0.507374   -1.136226
H      4.477509    1.612985   -1.548987
H      4.213991    1.530029    0.279360
H     -0.185040    0.942125    1.437777
H     -1.152498   -1.864743   -0.616728
H     -1.969791   -0.647935   -1.640146
H     -3.619573    2.709609    1.082985
H     -2.831284    1.692322    2.346042
H      5.224517   -0.718559   -1.538581
H     -2.037855   -0.779264    1.401376
H     -2.955894    1.181288   -0.682987
H     -3.491474   -2.468379   -1.389220
H     -5.122444   -0.958682   -0.904250
H     -1.733049    3.469703    0.381538
H      4.193481   -0.564571    1.087492
H     -3.141017   -2.732500    1.414662
H     -5.029192   -2.945037    0.658125
