48

C      0.635058    1.372174   -2.570126
C     -1.305321    0.239917    3.468429
C     -2.674653   -2.678667   -0.716630
C     -2.518254    2.405852    1.562159
C      5.318703   -0.421725   -2.131168
C      2.629527    0.272936   -1.579735
C      0.618445   -0.561604    2.076868
C     -3.166887   -0.279227   -1.098196
C      1.316816    0.669737   -1.448852
C     -0.543575    0.401493    2.178937
C     -2.138384   -1.249681   -0.619978
C     -2.694391    1.012098    1.042998
C      4.718461   -0.777747   -0.783895
C      3.331900   -0.392308   -0.564530
C      1.306219   -0.255242    0.776134
C     -3.270151    0.951989   -0.313512
C      2.657921   -0.648326    0.604220
C      0.675121    0.390844   -0.251898
C     -1.383860    0.253869    0.961337
O      5.465935   -1.363242    0.002472
O     -3.823727    1.919291   -0.769309
O      3.253190   -1.290267    1.651840
O     -1.677827   -1.048376    0.646580
O     -0.648318    0.798015   -0.137028
H      1.055509    2.402891   -2.709030
H      0.639423    0.786613   -3.498235
H     -0.431434    1.528540   -2.293269
H     -1.455240    1.210013    3.996043
H     -0.716307   -0.403233    4.178228
H     -2.267990   -0.286900    3.306494
H     -2.658053   -2.988449   -1.781837
H     -2.094974   -3.334980   -0.052311
H     -3.750775   -2.615754   -0.426767
H     -2.923898    2.494291    2.598334
H     -1.498190    2.798123    1.471430
H     -3.174511    3.071963    0.942124
H      5.177281    0.668176   -2.329983
H      4.740586   -0.960131   -2.893960
H      6.384990   -0.644312   -2.175977
H      3.153827    0.474526   -2.494928
H      0.181580   -1.590396    2.035538
H      1.302060   -0.423625    2.921671
H     -3.029513   -0.094746   -2.191261
H     -4.167416   -0.798784   -1.029277
H     -0.088333    1.430689    2.151927
H     -1.273156   -1.208762   -1.318333
H     -3.354276    0.392943    1.718499
H      4.166862   -1.630498    1.714250
