62

C     -0.217307    1.406375    1.153587
C     -0.780129   -2.611495   -0.905900
C      6.882382   -0.247927    1.070623
C     -2.318355    2.623296   -4.511824
C      6.310461    0.465610    0.045822
C      6.095793   -0.789945    2.054110
C     -1.073316    2.083754   -4.359509
C     -3.292543    2.385617   -3.587073
C      1.952221    0.973541   -0.098630
C     -2.287278   -2.310108    3.047777
C     -4.931360    0.539938    0.276711
C      0.478250    0.932932   -0.092743
C     -0.382317   -1.421336    0.013713
C      4.915387    0.609329    0.054288
C      4.698117   -0.638750    2.050824
C     -0.835157    1.284287   -3.228623
C      2.674072    0.254780    0.961456
C     -1.231140   -2.191602    2.190937
C     -3.474049   -1.657861    2.827122
C     -4.839217   -0.228897    1.453393
C     -3.053995    1.605853   -2.487104
C     -3.884230    0.691773   -0.589563
C     -0.214629   -0.191057   -0.828884
C     -1.417359   -1.365912    1.068540
C      4.105744    0.075197    1.028354
C     -3.631991   -0.856148    1.728337
C     -1.789288    1.028429   -2.284723
C     -2.663713    0.068055   -0.325573
C     -1.591261    0.243460   -1.174275
C     -2.585766   -0.686355    0.813067
O      4.364492    1.331757   -0.984267
O      4.051846   -1.232931    3.092612
O      0.421593    0.746838   -3.092429
O      1.989733   -0.242083    1.881355
O     -0.005438   -2.801691    2.321313
O     -4.374753   -1.830518    3.658570
O     -5.909520   -0.333988    2.270070
O     -4.026019    1.420660   -1.648633
H     -1.204570    1.829489    0.886465
H     -0.273123    0.643274    1.945736
H      0.336966    2.261227    1.614736
H      0.034958   -2.737072   -1.645977
H     -0.742479   -3.489876   -0.246980
H     -1.708721   -2.424422   -1.430872
H      7.970361   -0.375182    1.087737
H     -2.514908    3.238932   -5.375186
H      6.868020    0.918975   -0.759746
H      6.556284   -1.352437    2.860629
H     -0.260956    2.225284   -5.041247
H     -4.289054    2.822302   -3.717183
H      2.349616    2.026473   -0.095094
H      2.285797    0.578413   -1.117921
H     -2.132664   -2.952695    3.916745
H     -5.898323    1.007324    0.103503
H      0.232352    1.904460   -0.757148
H      0.548705   -1.770293    0.452055
H      0.390870   -0.632190   -1.629507
H      4.915611    1.729447   -1.701004
H      3.127748   -1.305573    3.361397
H      1.144662    0.912540   -3.763456
H      0.211971   -3.411092    3.098706
H     -6.079084   -0.780185    3.090786
