39

C      4.673447   -0.646432    0.899063
C      5.722171    0.598633   -0.881866
C     -0.122171    0.056374    2.154463
C      2.088689   -0.106188    0.248317
C      3.140392    0.495600   -0.640289
C     -3.309347    0.794782   -1.185249
C     -1.989077    0.592347   -0.772399
C      0.688819    0.254999   -0.206098
C     -4.037294   -0.569904    0.593750
C      4.492772    0.115182   -0.159564
C     -4.346054    0.210106   -0.498657
C     -1.695194   -0.183006    0.312143
C     -2.722238   -0.777055    1.012447
C     -5.749212    0.412061   -0.919469
C     -0.291328   -0.393398    0.745645
O     -2.441287   -1.568532    2.117376
O     -6.649687   -0.150511   -0.248678
O     -6.078026    1.182470   -2.000932
O     -0.012338   -1.776820    0.694132
H      5.659641   -0.925609    1.252731
H      3.835119   -1.037877    1.477318
H      5.410439    0.848090   -1.904473
H      6.107309    1.474059   -0.315437
H      6.440735   -0.239469   -0.909383
H      0.303234   -0.751755    2.794207
H     -1.109998    0.292857    2.580732
H      0.484438    0.985077    2.252255
H      2.221689   -1.206774    0.245964
H      2.254588    0.227821    1.299805
H      3.022628    0.094446   -1.676672
H      3.038008    1.593567   -0.731178
H     -3.523721    1.407294   -2.040170
H     -1.195659    1.062284   -1.328427
H      0.561736    1.330963   -0.312634
H      0.538647   -0.214245   -1.200884
H     -4.852408   -1.023803    1.125698
H     -3.199176   -2.003309    2.629298
H     -6.983688    1.614971   -2.054732
H     -0.376598   -2.069299   -0.191367
