39

C      4.997478    0.196461    1.320551
C      4.988139    0.245259   -1.099622
C      0.168219   -1.061673    1.361774
C      2.098789    0.532726   -0.501152
C      2.890198   -0.513902    0.190801
C     -3.798795    1.029571    0.483100
C     -2.429977    1.044362    0.724992
C      0.649923    0.303381   -0.719578
C     -3.536470   -0.947985   -0.757560
C      4.324197   -0.014236    0.202978
C     -4.368523    0.023048   -0.267701
C     -1.618797    0.060128    0.223011
C     -2.173023   -0.958352   -0.532924
C     -5.813342    0.002654   -0.526158
C     -0.157556    0.110138    0.503435
O     -1.341646   -1.950158   -1.036390
O     -6.320028   -0.908009   -1.203949
O     -6.648242    0.990896   -0.025630
O      0.048286    1.276048    1.296095
H      4.541921    0.016573    2.299735
H      6.017900    0.552572    1.305233
H      4.633983    1.181715   -1.578448
H      4.777074   -0.643832   -1.751496
H      6.074697    0.337955   -0.978803
H      0.606512   -0.780315    2.330242
H      0.756367   -1.830288    0.846088
H     -0.789856   -1.620084    1.661604
H      2.637160    0.717873   -1.491506
H      2.299644    1.496674    0.047532
H      2.899590   -1.490254   -0.325323
H      2.646960   -0.579674    1.276849
H     -4.425007    1.812144    0.885403
H     -2.063459    1.871734    1.324888
H      0.547094   -0.547237   -1.449282
H      0.275509    1.200364   -1.314585
H     -3.993258   -1.742023   -1.351100
H     -1.779527   -2.678639   -1.584103
H     -7.538516    1.232836   -0.458968
H     -0.083618    2.031551    0.669969
