40

C     -3.196983   -1.021138    0.254201
C     -3.050287    0.805207    1.849797
C     -0.340015   -2.062683    0.080481
C      2.758256    0.938507    1.644715
C      1.435589    0.601367    1.370440
C     -1.842515    0.501497   -1.735329
C     -0.536284   -0.120713   -1.462099
C      3.461314   -0.236055   -0.278610
C      3.783828    0.517143    0.813820
C      1.116666   -0.154327    0.273536
C      2.134606   -0.572902   -0.551710
C     -2.497559    1.163595   -0.554003
C      5.169562    0.844755    1.062035
C     -2.394504    0.189440    0.605975
C     -0.269926   -0.532835   -0.052298
O      1.908786   -1.339380   -1.682067
O     -3.864645    1.307862   -0.818844
O      5.474605    1.531682    2.056335
O      6.152099    0.404081    0.209494
O     -1.090055   -0.011667    0.893692
H     -2.844548   -1.566119   -0.632926
H     -3.383955   -1.686000    1.134954
H     -4.228480   -0.648202   -0.022729
H     -3.049114    0.013797    2.628672
H     -4.130026    1.024793    1.651961
H     -2.494079    1.671947    2.214766
H      0.616349   -2.492758    0.440726
H     -0.640710   -2.473179   -0.905460
H     -1.108563   -2.372405    0.813370
H      3.005674    1.538099    2.516039
H      0.693942    0.970589    2.069858
H     -2.587503   -0.226972   -2.149914
H     -1.768365    1.296087   -2.534956
H      0.265493    0.575884   -1.852134
H     -0.432225   -1.030293   -2.102576
H      4.269577   -0.569802   -0.935985
H     -2.088812    2.152120   -0.310307
H      2.683901   -1.620934   -2.253650
H     -4.248320    2.105094   -0.392859
H      7.157224    0.584821    0.358527
