41

C      4.906934    0.280115   -1.104795
C      1.946456   -0.563106    0.501775
C      3.020502   -0.062469    1.068366
C      0.665396    0.137987    0.512764
C      4.291182   -0.814389    1.027571
C     -0.390784   -0.399990   -0.068567
C     -2.164486    0.389416   -1.542034
C     -2.267921   -1.070210    1.942588
C      5.378273   -0.000551    0.314466
C     -1.724893    0.214208   -0.118439
C     -2.758769   -0.689777    0.561593
C     -3.570610    0.814312   -1.719591
C     -3.985426    0.146176    0.647453
C     -4.409399    0.919664   -0.514372
O     -1.062732   -1.746784    1.826443
O      6.557322   -0.737860    0.240671
O     -3.558163    2.086295   -2.343913
O     -4.608448    0.164154    1.690878
O     -4.603239    2.271470   -0.141780
H      4.078843   -0.403484   -1.398897
H      5.727191    0.106838   -1.836100
H      4.607071    1.337605   -1.133447
H      2.025613   -1.523627    0.015894
H      2.995693    0.888859    1.564671
H      0.541956    1.101015    0.987544
H      4.180804   -1.772479    0.478360
H      4.687558   -1.052075    2.028146
H     -0.253155   -1.363813   -0.539806
H     -1.431236    1.106941   -2.012560
H     -1.957086   -0.584399   -2.062971
H     -3.030368   -1.704016    2.421976
H     -2.167273   -0.125047    2.519802
H      5.600587    0.926856    0.875060
H     -1.703038    1.188776    0.369826
H     -2.996536   -1.559900   -0.061228
H     -4.046411    0.143892   -2.495949
H     -5.449645    0.564933   -0.782121
H     -1.215002   -2.712743    1.692716
H      6.808816   -0.977202    1.165737
H     -3.236162    2.737656   -1.656336
H     -5.429416    2.336749    0.430088
