30

C      3.880048   -0.205599    0.457245
C     -2.512833   -1.277164   -0.561185
C      2.830083   -0.714713    1.185109
C     -1.120603   -1.745871   -0.182104
C      2.407959    0.899908   -1.039467
C      3.679104    0.593748   -0.644256
C     -2.356370    0.209696   -0.541487
C      1.351511    0.383928   -0.301963
C      1.525513   -0.417828    0.803467
C     -0.857495   -0.784323    0.974229
C     -1.106819    0.528635    0.251839
C     -0.005191    0.705936   -0.717310
C     -3.532398    0.919082    0.004374
O      4.739544    1.106057   -1.376798
O     -0.190348    1.123449   -1.886255
O     -4.565203    0.360934    0.414653
O     -3.466684    2.305456    0.057295
O      0.430267   -0.895782    1.489196
H      4.893850   -0.431512    0.747152
H     -2.788011   -1.669786   -1.561396
H     -3.198983   -1.644521    0.234402
H      2.942781   -1.342795    2.051605
H     -1.085643   -2.788946    0.126199
H     -0.379658   -1.477427   -0.967855
H      2.234628    1.537251   -1.917409
H     -2.256985    0.542677   -1.613063
H     -1.650219   -0.990693    1.722518
H     -1.234081    1.375096    0.929140
H      5.697092    0.907463   -1.123425
H     -4.304855    2.887645    0.127575
