34

C     -3.844334   -1.175595    0.024774
C      3.351929   -1.861378    0.605685
C     -2.573493   -1.733999   -0.583043
C     -0.606770    0.464734    1.739781
C     -1.118182   -0.856189    1.307413
C      0.272642    1.197305    0.808574
C     -0.601499   -0.289329   -0.974143
C      0.715024    1.609968   -1.556132
C     -1.388130   -0.922935   -0.137136
C      1.787502    2.539872   -1.224413
C      1.796002   -0.249779   -0.403304
C      0.561594    0.503889   -0.500456
O      2.964416    2.425403   -1.631415
O      1.539983    3.643972   -0.404955
O      2.675466   -0.086679   -1.280135
O      2.117838   -1.168239    0.593512
H     -3.802831   -0.057869   -0.010504
H     -4.724744   -1.503538   -0.583745
H     -3.988743   -1.526732    1.047238
H      3.944431   -1.533667    1.488606
H      3.907556   -1.558197   -0.304651
H      3.208216   -2.958755    0.619936
H     -2.457390   -2.796569   -0.294912
H     -2.702640   -1.704393   -1.674340
H     -0.125122    0.364772    2.738622
H     -1.513141    1.109600    1.951065
H     -2.029038   -1.175075    1.900961
H     -0.367870   -1.657036    1.576892
H      1.277678    1.356591    1.299748
H     -0.113362    2.210090    0.587248
H     -0.858415   -0.383910   -2.044508
H     -0.271925    2.124570   -1.617140
H      0.896112    1.139714   -2.546339
H      2.071238    4.509381   -0.518784
