33

C     -3.473015    2.993102    0.182442
C      4.381282   -0.343638    0.019548
C     -2.425879   -1.833251   -0.015924
C      3.468138   -1.375756   -0.052160
C     -1.190947   -2.626140   -0.390654
C      2.677399    1.316918   -0.033986
C      4.007161    0.991420    0.029477
C     -1.938154   -0.430336   -0.401326
C      1.753476    0.281688   -0.106219
C      2.119501   -1.047917   -0.116632
C     -0.124397   -1.818758    0.361300
C     -0.626552   -0.397575    0.370642
C      0.325638    0.580064   -0.173777
C     -2.893124    0.603497    0.055887
O      4.977959    1.952826    0.102602
O     -0.055902    1.660819   -0.693121
O     -3.939956    0.333287    0.677430
O     -2.620896    1.931804   -0.213622
O      1.137492   -1.999315   -0.190832
H     -4.274649    3.126681   -0.574380
H     -3.888685    2.828462    1.201560
H     -2.850690    3.911901    0.224254
H      5.449356   -0.579021    0.071168
H     -3.313521   -2.126327   -0.595205
H     -2.562235   -1.824869    1.064705
H      3.792623   -2.399908   -0.057789
H     -1.035490   -2.514313   -1.471098
H     -1.225626   -3.670183   -0.043194
H      2.322494    2.346185   -0.031078
H     -1.763621   -0.420488   -1.488926
H     -0.125525   -2.261401    1.398710
H     -0.925200   -0.123948    1.425317
H      4.841547    2.934488    0.117280
