41

C     -5.489462   -1.043231   -0.633542
C     -4.800980    1.445758   -0.984511
C     -2.507477    1.028936    0.566537
C     -3.454077   -0.079997    0.326540
C     -1.124528    0.713242    0.043859
C      5.890621   -0.409572   -0.847366
C      4.960951   -1.399985   -1.062785
C      0.844021   -0.862955    0.204212
C      4.216929    0.920350    0.172207
C     -4.549583    0.076970   -0.401206
C     -0.532495   -0.508094    0.693024
C      5.523189    0.761352   -0.226150
C      3.227530   -0.050267   -0.019350
C      3.636969   -1.199167   -0.641071
C      1.859663    0.158808    0.415497
C     -0.637364   -0.479734    2.168680
O      6.465004    1.781924   -0.000130
O      2.699837   -2.210458   -0.863817
O      1.627382    1.274937    0.979782
O     -1.252084   -1.347844    2.847276
O     -0.043856    0.542670    2.933573
H     -5.102247   -1.730643   -1.406537
H     -5.687794   -1.604993    0.299488
H     -6.444127   -0.609799   -1.003700
H     -4.873717    2.217154   -0.203970
H     -3.995118    1.712953   -1.693101
H     -5.795080    1.413836   -1.487430
H     -2.509923    1.319199    1.628215
H     -2.867225    1.909660   -0.004765
H     -3.278277   -1.085107    0.749444
H     -0.515281    1.624261    0.196117
H     -1.230034    0.594199   -1.055153
H      6.929199   -0.514334   -1.154318
H      5.239757   -2.322756   -1.549656
H      0.734929   -1.023306   -0.889883
H      1.127168   -1.785979    0.765568
H      3.911682    1.848215    0.668011
H     -1.189737   -1.371087    0.364615
H      6.557254    2.465812   -0.737262
H      2.939371   -3.067530   -1.311085
H     -0.510994    0.896602    3.738953
