47

C      3.651408   -1.215484    1.208304
C      5.197004    3.203017   -0.134051
C     -1.539313   -2.437241   -0.002956
C      0.980949   -1.109218    0.064888
C      2.182312   -0.495813   -0.620239
C     -4.089719    1.443063   -0.508555
C     -2.860845    0.829437   -0.431800
C     -0.287479   -0.346290   -0.248322
C     -5.018529   -0.170893    0.922742
C      4.595159   -0.473006   -0.916611
C      3.450040   -1.258602   -0.307298
C      5.383109    1.853039   -0.732458
C     -5.200340    0.964878    0.162351
C     -2.702817   -0.292924    0.326006
C     -3.785621   -0.814120    1.019525
C     -6.477918    1.643499    0.053378
C     -1.415255   -1.017405    0.464854
O      6.298968    1.572287   -1.527013
O     -3.639927   -1.956551    1.795364
O     -7.457785    1.180440    0.674848
O     -6.638388    2.775677   -0.710805
O     -1.103500   -0.990259    1.843566
O      4.492198    0.854059   -0.389458
H      3.561765   -0.126117    1.475841
H      4.700347   -1.495097    1.480509
H      2.911552   -1.825803    1.742389
H      5.887883    3.947186   -0.583141
H      5.316433    3.092969    0.956110
H      4.137433    3.508585   -0.305843
H     -1.149257   -3.102555    0.781054
H     -1.012249   -2.568578   -0.983881
H     -2.629283   -2.638267   -0.210035
H      0.841592   -2.152224   -0.235813
H      1.103495   -1.077526    1.165731
H      2.051798   -0.408613   -1.700066
H      2.331398    0.533051   -0.194709
H     -4.191720    2.343423   -1.123787
H     -1.999036    1.227109   -0.971493
H     -0.480135   -0.429795   -1.339287
H     -0.204998    0.728587   -0.026598
H     -5.836733   -0.590981    1.465602
H      4.356652   -0.382837   -2.009927
H      5.570164   -0.923284   -0.727091
H      3.421364   -2.300404   -0.677069
H     -4.436878   -2.310928    2.284842
H     -7.525063    3.297029   -0.752785
H     -0.740240   -0.086521    2.025497
