42

C      6.136363   -0.222999    1.878951
C      0.678175    1.020313   -2.384134
C     -5.864776   -1.960186    0.056168
C     -2.323632   -0.989076   -0.168803
C     -4.252962    0.430539   -0.081785
C      0.455200   -1.271904    0.122642
C      2.234931    0.915954   -0.451504
C      4.662945   -0.111405    1.792270
C     -3.701004   -0.808787   -0.091483
C     -1.490714    0.087972   -0.236886
C     -0.028925   -0.140145   -0.306859
C      1.918607   -1.508289    0.054938
C     -3.417295    1.549700   -0.151409
C      2.559709   -0.203641    0.509724
C     -2.024560    1.382442   -0.230036
C     -1.095494    2.478987   -0.320787
C      0.788602    0.963664   -0.861474
O      3.963433    0.169256    2.800125
O      2.337273   -2.491041    0.952471
O     -3.949074    2.781841   -0.142810
O     -1.524570    3.664272   -0.317902
O     -4.472139   -1.979395   -0.024993
O      3.965840   -0.309492    0.595363
O      0.267891    2.216845   -0.410775
H      6.448726    0.270615    2.822897
H      6.462009   -1.292491    1.872850
H      6.654967    0.307161    1.060936
H      0.361743    0.038850   -2.795208
H     -0.085113    1.756100   -2.713013
H      1.645812    1.370165   -2.804000
H     -6.226416   -2.968492   -0.291906
H     -6.166610   -1.765555    1.099971
H     -6.286438   -1.189910   -0.623539
H     -1.934966   -2.009563   -0.180238
H     -5.303043    0.594388   -0.023089
H     -0.118140   -2.085157    0.543234
H      2.534750    1.893633   -0.029101
H      2.859423    0.798386   -1.375684
H      2.256618   -1.812464   -0.942738
H      2.084612    0.049064    1.480406
H      2.655445   -3.303625    0.492778
H     -3.667204    3.683470   -0.175570
