41

C     -1.723496    3.152918   -0.244314
C     -2.671197   -1.961297    1.729256
C      3.815933   -0.114608    0.514452
C      0.620287    2.628642   -0.059404
C      1.731258    1.659749   -0.238289
C     -0.640681   -0.931204    0.800448
C     -2.239850    0.589548   -0.987126
C      2.389572   -2.041272    0.352951
C     -0.575401    2.223951   -0.401916
C     -1.919361   -1.223007    0.678682
C      2.532489   -0.616899   -0.132331
C      1.370327    0.271864    0.246184
C     -0.779681    0.856415   -0.941207
C      0.047680   -0.195417   -0.283231
C     -2.636293   -0.796522   -0.533448
O      1.285419   -2.712783   -0.117902
O     -2.434374   -1.754572   -1.533574
H     -2.433492    3.121756   -1.093861
H     -2.319382    2.962670    0.675696
H     -1.309642    4.182119   -0.097447
H     -3.306634   -2.712819    1.188405
H     -3.270323   -1.277159    2.347257
H     -1.964586   -2.590360    2.340544
H      4.582479   -0.915853    0.560776
H      4.243057    0.699116   -0.106219
H      3.663950    0.251396    1.531555
H      0.774722    3.644085    0.340860
H      2.600021    2.074718    0.312397
H      2.029838    1.597582   -1.319129
H     -0.080754   -1.235833    1.721143
H     -2.673242    0.692278   -2.004722
H     -2.820355    1.285547   -0.346023
H      3.277768   -2.647233    0.067232
H      2.349822   -2.100261    1.462411
H      2.646977   -0.638122   -1.223959
H      1.390514    0.333928    1.351032
H     -0.439331    0.954811   -2.020224
H      0.274654   -0.945537   -1.068155
H     -3.720998   -0.812144   -0.304882
H      1.449422   -3.284547   -0.900738
H     -3.117118   -1.675644   -2.263176
