34

C     -4.501134    1.618588   -0.561846
C      4.579604    1.402051    1.563435
C      2.362390   -3.422598   -0.506554
C     -0.988083   -0.928404   -0.588217
C      0.136706   -1.746863   -0.552269
C      0.178669    0.748195    0.592043
C     -3.412302    0.551181   -0.475083
C      3.437264    0.981800    0.710553
C     -0.988076    0.326651   -0.020233
C      1.293767   -0.065120    0.626821
C      1.297210   -1.321482    0.059493
C     -2.157718    1.236412   -0.031056
N      2.454379    0.402035    1.257476
O     -3.738404   -0.419111    0.448439
O      3.502465    1.244857   -0.644202
O     -2.368103    1.826125    1.226644
O      2.431344   -2.144070    0.096959
H     -4.275717    2.268205   -1.416524
H     -5.467089    1.097952   -0.664983
H     -4.503005    2.203773    0.370564
H      4.376246    2.452749    1.867971
H      4.585233    0.809833    2.505415
H      5.549239    1.280206    1.048166
H      1.462644   -3.998806   -0.157211
H      2.296304   -3.328179   -1.592124
H      3.279755   -3.994927   -0.198282
H     -1.886682   -1.268761   -1.066877
H      0.108657   -2.731533   -1.008021
H      0.184512    1.741792    1.043821
H     -3.300730    0.145509   -1.490254
H     -1.925082    2.056570   -0.741126
H     -4.305389   -1.127910    0.054104
H      2.742704    0.972181   -1.277154
H     -2.441580    1.131098    1.918069
