36

C     -1.867473    1.932630   -2.420053
C      3.485716    2.088212    0.763734
C     -2.311203   -2.020569   -0.806133
C      3.890829    0.933028    1.324600
C     -2.826469   -1.052134    0.255382
C      1.379339    1.079962    0.311519
C      2.222611    2.199883    0.240841
C     -0.862001   -1.447362   -0.966908
C      1.744898   -0.123488    0.873507
C      3.030306   -0.187502    1.388203
C     -1.621981   -0.522405    1.010595
C     -0.524423   -1.377351    0.457924
C      0.809375   -1.209156    0.943175
C     -0.963203   -0.278913   -1.801574
O      1.808261    3.393003   -0.337109
O      3.536506   -1.308859    1.973936
O     -1.738967   -0.864341    2.378740
O      1.289696   -2.249604    1.575351
O     -0.237737   -0.196548   -2.848437
O     -1.797378    0.803463   -1.576131
H     -2.054370    2.810919   -1.738081
H     -2.787802    1.905047   -3.073935
H     -0.994640    2.077498   -3.052747
H      4.120628    2.984278    0.692111
H     -2.835047   -1.834221   -1.758368
H     -2.285420   -3.055963   -0.482360
H      4.863485    0.818836    1.737499
H     -3.450399   -1.644960    0.944934
H     -3.393804   -0.235256   -0.225640
H      0.414785    1.257397   -0.099044
H     -0.233095   -2.232711   -1.440668
H     -1.500309    0.544139    0.974691
H     -0.858550   -2.444946    0.841218
H      0.859031    3.446767   -0.719469
H      3.202032   -2.169194    2.140483
H     -1.513226   -1.819578    2.518213
