41

C     -1.645303    3.339649   -0.570996
C     -2.309187   -2.970696    0.253032
C      2.544966   -0.830246    1.641260
C      0.631443    2.468378   -0.508624
C      1.690206    1.481444   -0.142749
C     -0.678623   -1.259296    0.962314
C     -2.359137    0.659500   -0.086465
C      3.121474   -1.210915   -0.710592
C     -0.625782    2.325615   -0.181671
C     -1.685254   -1.630268    0.187086
C      1.984426   -0.991384    0.248954
C      1.054872    0.127853   -0.151193
C     -1.125696    1.146018    0.599944
C     -0.077318    0.123628    0.853888
C     -2.214440   -0.654946   -0.795991
O      4.031779   -0.176865   -0.743280
O     -3.499759   -1.019302   -1.238302
H     -1.907242    3.258205   -1.634348
H     -1.203633    4.340439   -0.334286
H     -2.570437    3.272406    0.028211
H     -2.660778   -3.275735   -0.741095
H     -1.548939   -3.691386    0.664676
H     -3.203413   -2.974259    0.942044
H      3.034591    0.146080    1.773121
H      3.314554   -1.636573    1.755363
H      1.797364   -1.009133    2.428490
H      0.920429    3.344705   -1.071913
H      2.057357    1.700935    0.889825
H      2.539778    1.597312   -0.831677
H     -0.309374   -1.989613    1.673043
H     -3.201170    0.521171    0.653228
H     -2.767235    1.422008   -0.807777
H      3.650564   -2.130707   -0.359327
H      2.741216   -1.440844   -1.745189
H      1.411435   -1.956945    0.270846
H      0.707002   -0.081268   -1.177647
H     -1.464000    1.602807    1.580027
H      0.397017    0.347757    1.833048
H     -1.580524   -0.585248   -1.705325
H      4.399449   -0.104979   -1.648853
H     -3.392675   -1.605301   -2.051104
