39

C     -5.091196   -0.194659   -0.067173
C     -4.425836   -1.708912    1.882862
C      5.391465   -0.746103    1.019866
C      5.091237    0.526252    1.404133
C     -2.866086   -0.162563    0.875388
C     -1.097409    1.310115    0.036875
C      0.805838    0.148358   -0.948863
C      3.318851   -0.872422   -0.094289
C     -4.082918   -0.671354    0.897695
C     -0.426606    0.935068   -1.243699
C      4.506882   -1.470741    0.260782
C     -2.520678    0.885900   -0.120597
C      3.001594    0.439475    0.297981
C      3.883135    1.163063    1.055062
C      1.726052    1.005706   -0.115435
C     -1.422149    0.139013   -1.994686
O      4.832243   -2.765038   -0.119904
O      3.669705    2.445400    1.487974
O      1.334976    2.140477    0.164178
O     -1.214944   -0.657665   -2.948099
O     -2.656296    0.429932   -1.452251
H     -5.025531    0.884568   -0.282399
H     -4.930320   -0.716213   -1.049560
H     -6.130870   -0.393085    0.277243
H     -4.328572   -1.284829    2.911126
H     -5.435561   -2.136015    1.710621
H     -3.711829   -2.569465    1.843814
H      6.352791   -1.164427    1.335008
H      5.775387    1.109220    2.000744
H     -2.128717   -0.515698    1.585956
H     -0.982693    2.386823    0.283099
H     -0.639367    0.747625    0.889659
H      1.348651   -0.205250   -1.836927
H      0.568315   -0.725055   -0.311462
H      2.612765   -1.420520   -0.687378
H     -0.147946    1.825236   -1.848777
H     -3.199608    1.759594   -0.011496
H      5.324939   -2.938172   -0.987912
H      2.920306    3.036360    1.354273
