40

C      4.703391   -1.075860   -0.792884
C      4.670750    0.249904   -0.448566
C     -1.114392   -1.382645    1.064176
C     -0.743282    0.042720    1.436547
C      2.325012   -0.964762   -1.024345
C     -0.273568    0.667896   -0.874543
C     -3.431671    0.728382    1.084367
C      3.514009   -1.704561   -1.088114
C      2.307390    0.366792   -0.676483
C      3.509612    0.968425   -0.386447
C      1.075391    1.150574   -0.590213
C     -2.373221   -1.325943    0.249330
C     -3.129651    0.431415   -1.330384
C     -1.702873    2.164741    0.555642
C     -1.257482    0.822212    0.244590
C     -2.566482    0.121169   -0.024886
O      3.463632   -3.052552   -1.446789
O      3.539804    2.342900   -0.022350
O      1.200514    2.359301   -0.234653
O     -3.467335   -1.886603    0.926926
O     -3.476753   -0.565630   -2.054387
O     -3.324474    1.679106   -1.859912
O     -1.212613    3.284916    0.278966
O     -2.892721    2.027480    1.293355
H      5.657706   -1.632769   -0.833539
H      5.615647    0.776025   -0.205502
H     -1.280935   -2.007446    1.975294
H     -0.325744   -1.822837    0.434059
H      0.371998    0.067270    1.470316
H     -1.194804    0.356701    2.396615
H      1.403662   -1.488796   -1.257504
H     -0.219039   -0.368793   -1.249042
H     -0.705759    1.245971   -1.747272
H     -4.490921    0.778906    0.796471
H     -3.300290    0.155001    2.024929
H     -2.282563   -1.873063   -0.712865
H      4.322295   -3.576659   -1.490904
H      4.427532    2.759028    0.181034
H     -3.183771   -2.686873    1.452384
H     -4.157999    1.868957   -2.430815
