38

C     -2.715839   -0.887483   -1.690382
C     -3.734632   -0.838261   -0.626041
C      4.925374   -0.387925    0.974893
C      4.740062   -0.672917   -0.352453
C     -1.767277    0.274271   -1.654733
C      2.598078   -0.290710    1.288930
C     -2.346559    0.628606    0.731426
C     -0.248521   -0.483343    0.231004
C     -4.595040   -0.131738    1.494218
C     -3.534908   -0.141586    0.458220
C      3.867532   -0.191378    1.821355
C      2.345477   -0.578945   -0.057688
C      3.437179   -0.770392   -0.879339
C      0.979874   -0.657922   -0.556917
C     -0.554728    1.852475   -0.306871
C     -1.227593    0.534777   -0.287998
O     -5.637327   -0.796164    1.277182
O      4.046673    0.098788    3.170535
O      3.345537   -1.054277   -2.193842
O      0.825305   -0.897959   -1.778698
O      0.648492    1.949184   -0.048089
O     -1.267616    3.014268   -0.616826
H     -2.202156   -1.865056   -1.598546
H     -3.224235   -0.911131   -2.686256
H     -4.684577   -1.412593   -0.770091
H      5.935099   -0.309475    1.399155
H      5.557783   -0.829158   -1.026363
H     -2.373439    1.178273   -1.976602
H     -1.008399    0.157573   -2.420971
H      1.767877   -0.131408    1.964629
H     -1.906997    0.408500    1.735448
H     -2.666002    1.708789    0.820781
H     -0.787064   -1.504222    0.282385
H      0.003178   -0.310167    1.293246
H     -4.449100    0.432652    2.390283
H      4.129468    1.076937    3.488985
H      2.653254   -1.188715   -2.849230
H     -0.874234    3.927831   -0.575857
