44

C     -4.222174    0.588132    0.764479
C      0.770791    0.712930    2.627291
C      4.972219    1.299863    0.014195
C      3.849185    2.071629   -0.010590
C     -2.190876   -2.126136    0.560103
C     -1.187390   -1.680368   -0.490634
C      3.689144   -0.490619   -0.875305
C     -0.048118    0.155954   -1.641227
C     -3.428169   -0.153739    0.005535
C      4.885305   -0.000808   -0.425908
C      2.497327    0.257213   -0.925041
C     -3.547647   -1.631465    0.108821
C      2.607495    1.561700   -0.477172
C      1.293658   -0.352717   -1.438474
C     -2.427752    0.394966   -0.940575
C     -0.652476    0.417865    0.698833
C     -1.058798   -0.178374   -0.567903
O      6.034447   -0.773752   -0.394481
O     -4.562199   -2.012313    0.982064
O      1.617530    2.451198   -0.428162
O      1.433595   -1.596898   -1.790471
O     -2.388856    1.777762   -0.806229
O     -1.364903    1.325895    1.210239
O      0.482851    0.064967    1.414251
H     -4.189848    1.685782    0.741142
H     -4.943401    0.155957    1.446848
H      1.713924    1.328942    2.556518
H     -0.022020    1.430084    2.887527
H      0.953729   -0.004944    3.455707
H      5.930370    1.696105    0.375142
H      3.932843    3.088299    0.337248
H     -1.932337   -1.805103    1.571395
H     -2.171470   -3.250248    0.522721
H     -1.585630   -2.025081   -1.464620
H     -0.217901   -2.157866   -0.304120
H      3.645003   -1.509637   -1.214103
H     -0.128250    1.177117   -2.035065
H     -0.500484   -0.431837   -2.565331
H     -3.715331   -2.010471   -0.925439
H     -2.734412    0.075096   -1.956552
H      6.195300   -1.296688    0.469395
H     -4.830026   -2.929956    0.785971
H      0.706638    2.499397   -0.623857
H     -3.160885    2.202166   -1.234166
