34

C     -3.590645    2.102974    0.210261
C      4.431420   -0.492062   -0.160535
C     -0.611628   -1.669127   -0.389288
C      3.989931    0.427993   -1.086707
C     -1.888976   -1.986457    0.398786
C      2.230392   -0.581015    0.818528
C     -1.118898    2.484416    0.218213
C     -2.175884    1.603797    0.113028
C      3.547965   -0.982440    0.776316
C     -0.584371   -0.177987   -0.164970
C      1.828498    0.347191   -0.133033
C      2.663249    0.862572   -1.080911
C     -2.787454   -0.912311   -0.228762
C     -1.884423    0.277460   -0.078799
C      0.431599    0.765530   -0.049031
N      0.153284    2.065463    0.137828
O      3.988049   -1.903841    1.705276
O      2.215008    1.787408   -2.012331
O     -2.914851   -1.248697   -1.568552
H     -4.257134    1.314084    0.608364
H     -3.587652    2.927346    0.958109
H     -3.953789    2.409663   -0.786629
H      5.462446   -0.826442   -0.171712
H     -0.768694   -1.851420   -1.471572
H      0.205077   -2.204716    0.072911
H      4.637465    0.843098   -1.840017
H     -1.726711   -1.696699    1.437802
H     -2.239276   -2.997475    0.219772
H      1.565855   -0.981080    1.571812
H     -1.364488    3.534186    0.370886
H     -3.729269   -0.793264    0.307189
H      3.369610   -2.288421    2.411816
H      1.245600    2.062653   -1.963008
H     -2.781306   -2.222379   -1.690104
