59

C      3.616636    2.903941    0.317588
C      4.619573    2.141023   -0.020041
C      1.025469   -2.578165   -1.741358
C      1.496662   -3.591341   -0.764580
C     -1.733353    3.623183    0.350298
C     -1.127863    2.401648    0.554011
C     -3.053548    3.737522    0.043774
C      0.491030   -1.289684   -1.179465
C      4.748644    0.693360   -0.112112
C      2.466357   -3.032284    0.273326
C     -2.040500   -1.103089    0.447442
C     -1.877554    1.231281    0.447010
C     -1.259468    0.026029    0.607556
C     -3.817574    2.562357   -0.063319
C      0.706953   -1.344913    0.312934
C     -3.369200   -0.972953    0.150120
C     -3.225692    1.333719    0.135955
C      0.133375   -0.209298    1.116981
C      3.096110   -0.759696    1.019725
C     -5.254250    2.647627   -0.421016
C     -4.219271   -2.166399   -0.007151
F     -5.454231    1.952212   -1.621569
F     -5.627569    3.953504   -0.696097
F     -6.017522    2.058467    0.521973
F     -3.552524   -3.366182   -0.023586
F     -5.037654   -2.026028   -1.106739
F     -5.103869   -2.096653    1.105385
N      3.739433   -0.181860    0.152029
N     -3.976878    0.209691   -0.009860
N      2.063861   -1.654439    0.577131
O      0.889251    0.879220    1.247431
S      3.343236   -0.542231    2.747067
C     -0.407039   -0.049667   -0.265082
C      0.811387    0.157467    0.533772
N      1.762955    0.308245    1.172762
H      2.676830    2.508004    0.590492
H      3.689187    3.998450    0.350226
H      5.578652    2.692350   -0.262316
H      1.775150   -2.423009   -2.564485
H      0.139618   -3.052624   -2.274118
H      2.105406   -4.338481   -1.353389
H      0.710802   -4.231807   -0.295310
H     -1.082689    4.511335    0.457166
H     -0.090448    2.356247    0.747235
H     -3.528928    4.698084   -0.128894
H     -0.552767   -1.094702   -1.485798
H      1.159253   -0.481788   -1.589238
H      5.078047    0.520686   -1.215163
H      5.696745    0.405716    0.499543
H      3.453400   -3.049756   -0.216699
H      2.449630   -3.696321    1.136508
H     -1.662369   -2.100594    0.567398
H      0.127562   -2.304079    0.609748
H     -0.038827   -0.637535    2.131635
H      0.900315    1.121677    2.254486
H      4.727361   -0.841423    2.986637
H     -0.296622   -1.045475   -0.780858
H     -1.315382   -0.092323    0.367340
H     -0.555299    0.721752   -1.027935
