50

C      5.058208    3.048171   -0.114942
C      4.203462   -2.447800   -0.009966
C     -3.483804   -4.078323   -0.484862
C      0.645402   -3.545058    1.108457
C     -3.927362    0.910154    0.010394
C     -3.613331    2.114606    0.839118
C      0.009992    2.444410   -0.106587
C     -2.991113   -1.383417   -0.164042
C      2.415823    1.998033   -0.049081
C      2.031547   -0.746623    0.005820
C     -2.342186    3.924590   -0.321068
C     -2.760166   -0.009684    0.002121
C      1.116590    1.467538   -0.015847
C      0.937323    0.082000    0.014662
C     -1.204689    1.877224    0.460600
C      3.503357    1.160875   -0.054702
C      3.310665   -0.205346   -0.028021
C     -1.947059   -2.247175   -0.193997
C     -1.465289    0.446612    0.131820
C     -0.419295   -0.469530    0.087867
C     -0.611513   -1.808577   -0.064430
N     -2.391484    2.683815    0.305073
O     -3.413209    4.600263   -0.436536
O      4.816175    1.654119   -0.087310
O      4.386718   -1.053808   -0.034525
O     -2.179944   -3.602114   -0.355592
O      0.365387   -2.792272   -0.100952
H      6.088883    3.237709   -0.483282
H      4.382193    3.502634   -0.866782
H      4.856243    3.535909    0.865587
H      5.190589   -2.979975   -0.035160
H      3.691230   -2.806095    0.904246
H      3.560195   -2.791042   -0.868615
H     -4.059540   -3.566453   -1.286081
H     -4.085055   -3.963333    0.460124
H     -3.438865   -5.151765   -0.760633
H      1.562631   -4.122215    0.873814
H     -0.152725   -4.240465    1.350051
H      0.895081   -2.807865    1.884209
H     -4.044371    1.262139   -1.050081
H     -4.840864    0.376489    0.354446
H     -3.488626    1.816050    1.912363
H     -4.431357    2.871126    0.785337
H      0.333491    3.345937    0.482061
H     -0.169958    2.743726   -1.167671
H     -4.023802   -1.702265   -0.264156
H      2.557519    3.065772   -0.069979
H      2.005734   -1.786051   -0.007370
H     -1.403917    4.300381   -0.700472
H     -1.034913    1.836967    1.601559
