59

C      7.061974   -0.300287   -0.431903
C      6.108128    0.245130    0.288812
C      0.362046   -0.410000   -2.022316
C      0.433695   -1.473847   -0.981524
C     -3.468935    1.736884   -2.479230
C     -2.451139    1.699367   -1.513869
C     -4.498761    0.835808   -2.353347
C      0.870010    0.929119   -1.722733
C      5.248928   -0.543945    1.215621
C      1.292235   -1.191740    0.208318
C     -1.559949   -0.172274    1.403581
C     -2.493105    0.805570   -0.502424
C     -1.445945    0.766772    0.422377
C     -4.555828   -0.076204   -1.331332
C      0.942742    1.265570   -0.201386
C     -2.623656   -1.045088    1.503314
C     -3.530472   -0.078358   -0.394830
C     -0.345678    1.728137    0.296458
C      3.049243    0.414776    0.790540
C     -5.629229   -1.101955   -1.305078
C     -2.777220   -2.017314    2.649330
F     -5.033993   -2.381775   -1.477242
F     -6.224090   -1.151803   -0.078029
F     -6.557461   -0.901863   -2.299152
F     -3.431488   -1.238964    3.632162
F     -3.671918   -2.983026    2.294952
F     -1.583001   -2.462089    3.118041
N      3.896348   -0.524970    0.796829
N     -3.595868   -0.980436    0.589662
N      1.700174    0.187260    0.294718
O     -0.051001    2.056566    1.693859
S      3.525123    2.034866    1.358078
C     -0.474325   -0.010967    0.000097
C      0.977004   -0.000246    0.007818
N      2.141000    0.014832   -0.003509
H      7.702832    0.239722   -1.107452
H      7.265577   -1.385089   -0.397436
H      5.940841    1.300893    0.213977
H     -0.689730   -0.375523   -2.375749
H      0.905383   -0.770218   -2.958272
H      0.843427   -2.406714   -1.476341
H     -0.561870   -1.817102   -0.635874
H     -3.445048    2.440531   -3.281665
H     -1.684538    2.415584   -1.627765
H     -5.300658    0.822998   -3.074836
H      1.950863    0.963670   -2.005938
H      0.397751    1.716051   -2.290418
H      5.293813   -0.119098    2.247506
H      5.621490   -1.577875    1.273473
H      2.246173   -1.811034    0.092453
H      0.883827   -1.521724    1.154097
H     -0.794943   -0.266678    2.192225
H      1.607766    2.194878   -0.210182
H     -0.581037    2.728857   -0.054520
H      0.506751    1.314422    2.043573
H      2.929421    2.243561    2.588651
H     -0.863467   -0.757261   -0.737097
H     -0.876017   -0.223273    1.021310
H     -0.904194    0.976915   -0.288619
