44

C     -3.792629   -0.870461    0.276222
C      5.383806   -0.749230   -0.055535
C     -1.476118    0.823647   -1.648405
C     -0.148228    0.751611   -2.024446
C      1.380657   -0.524786    1.056909
C      2.701372   -0.593646    0.674645
C     -0.891851    0.002713    0.510202
C      2.127769    0.232458   -1.503857
C     -3.282921    0.537274   -0.004798
C     -1.858147    0.451136   -0.382262
C      0.431481   -0.075186    0.153450
C      0.800235    0.303536   -1.125103
C      3.068807   -0.216778   -0.597861
C     -3.503584    1.395866    1.172189
O     -4.239989    2.405851    1.053918
O     -2.910564    1.097856    2.391235
O      4.421849   -0.296075   -0.963705
C     -0.409433    1.261176    0.414821
C     -0.303849   -0.237466    0.223587
C      1.014622   -0.506187   -0.389868
N     -1.331573   -0.733035   -0.628853
O      1.058411   -1.088879   -1.493267
O      2.156891   -0.114323    0.257781
H     -3.028032   -1.364071    0.927101
H     -3.885086   -1.373361   -0.705614
H     -4.773333   -0.799736    0.763732
H      6.344497   -0.919177   -0.560375
H      5.532786   -0.056791    0.810126
H      5.058099   -1.720693    0.376497
H     -2.205456    1.180362   -2.375800
H      0.124840    1.054696   -3.037861
H      1.108415   -0.821026    2.049804
H      3.454265   -0.942212    1.367582
H     -1.169860   -0.293494    1.505605
H      2.431101    0.526629   -2.504445
H     -3.857770    0.916296   -0.866252
H     -3.346412    1.400175    3.267103
H     -0.296757    1.711087   -0.599390
H     -1.330595    1.568067    0.928935
H      0.437910    1.552493    1.077811
H     -0.406729   -0.721001    1.217565
H     -1.359199   -1.772277   -0.598395
H     -2.250518   -0.273447   -0.539918
H      3.020820   -0.646208    0.129190
