40

C      3.296528   -3.914869   -0.974099
C     -1.140609    0.387958   -3.192108
C     -3.974310    1.825481   -0.556229
C     -3.842493    1.707160    0.807053
C     -3.011473    1.335197   -1.398385
C      3.317621    0.848473    0.193838
C      2.600051    1.910612    0.686191
C      3.316577   -1.504441   -0.384847
C      1.292601   -2.760908   -0.040836
C      2.610232   -2.689970   -0.449416
C      2.686914   -0.371748    0.098885
C     -2.712649    1.079790    1.321935
C      1.263508    1.773132    1.085129
C     -1.881905    0.709364   -0.925033
C      0.631333   -1.636576    0.451086
C      1.371064   -0.483253    0.497447
C     -1.772870    0.602847    0.450983
C      0.616365    0.548684    0.995069
C     -2.251976    0.787046    2.667817
C     -0.700374   -0.007813    1.296223
N     -1.137142    0.187004    2.626215
O      0.577062    2.865145    1.573573
O     -2.978144    1.141274    3.809276
O     -0.935537    0.229470   -1.810496
O     -0.621937   -1.361165    0.923372
H      3.722581   -3.620805   -1.969496
H      2.537559   -4.692313   -1.182294
H      4.098177   -4.236094   -0.299873
H     -2.138580    0.016604   -3.518263
H     -1.113134    1.462558   -3.512944
H     -0.399640   -0.164223   -3.802839
H     -4.843880    2.308575   -0.959417
H     -4.572719    2.076458    1.518990
H     -3.155209    1.450386   -2.483390
H      4.342034    0.934637   -0.116428
H      3.019678    2.899335    0.792476
H      4.343491   -1.452734   -0.704294
H      0.719340   -3.674986   -0.081505
H     -0.379084    2.773498    1.855193
H     -2.799049    0.711209    4.711440
