40

C     -5.404380    1.049075    2.035526
C      6.102619    0.431037   -0.368329
C      2.845176   -1.365730    1.569450
C      1.577290   -0.944729    1.239354
C      3.909564   -0.770503    0.928405
C     -3.206524   -1.676183   -1.398078
C     -2.022203   -1.950945   -2.083082
C     -4.372467   -0.373856    0.283419
C     -3.036165    1.303867    1.450648
C     -4.231219    0.637497    1.220841
C     -3.212723   -0.682714   -0.426223
C      1.332987    0.050248    0.291268
C     -0.852646   -1.240831   -1.801607
C      3.737269    0.215952   -0.015827
C     -1.884818    0.972250    0.721748
C     -2.030473   -0.024500   -0.199871
C      2.423865    0.608921   -0.316015
C     -0.840063   -0.242059   -0.831185
C      1.901280    1.602911   -1.246154
C      0.147534    0.696933   -0.262284
N      0.631325    1.643690   -1.208120
O      0.341977   -1.484811   -2.460203
O      2.720844    2.406061   -2.073495
O      4.782631    0.830499   -0.674412
O     -0.592063    1.415420    0.699316
H     -6.280636    0.441142    1.778608
H     -5.105024    0.898607    3.104145
H     -5.589413    2.149344    1.946258
H      6.843415    0.951868   -1.019642
H      6.268090   -0.657216   -0.506458
H      6.358451    0.741489    0.671616
H      2.945144   -2.137152    2.309987
H      0.690265   -1.363603    1.698894
H      4.924198   -1.098999    1.184420
H     -4.123960   -2.212759   -1.598909
H     -2.007348   -2.716203   -2.835231
H     -5.291359   -0.899825    0.093447
H     -2.965105    2.089819    2.192775
H      0.324611   -2.224828   -3.176388
H      2.240053    2.930819   -2.794251
