40

C     -5.504817   -1.385459    1.765488
C      6.028543   -0.384809   -0.885083
C      3.003404    0.568498    1.860455
C      1.676251    0.307019    1.515822
C      4.012752    0.263897    0.975101
C     -3.089476    2.113623   -0.771266
C     -1.886596    2.508376   -1.348590
C     -4.331724    0.425642    0.476586
C     -3.127082   -1.545604    1.102916
C     -4.310474   -0.800462    1.093984
C     -3.168118    0.885063   -0.121375
C      1.348918   -0.251710    0.304391
C     -0.745080    1.700362   -1.294557
C      3.700188   -0.302859   -0.257421
C     -1.957261   -1.093010    0.506488
C     -2.015982    0.131472   -0.098363
C      2.381786   -0.551100   -0.573546
C     -0.810414    0.464626   -0.645178
C      1.788387   -1.127608   -1.775123
C      0.121622   -0.649526   -0.369828
N      0.511715   -1.183412   -1.660540
O      0.450239    2.079208   -1.861432
O      2.449615   -1.578865   -2.928834
O      4.676087   -0.625954   -1.178590
O     -0.668741   -1.560307    0.341113
H     -6.391340   -0.770429    1.593086
H     -5.739254   -2.400928    1.333562
H     -5.296746   -1.547615    2.846184
H      6.696054   -0.873371   -1.637000
H      6.220635   -0.807068    0.141862
H      6.294267    0.679289   -0.825631
H      3.280703    1.006009    2.805112
H      0.917563    0.557656    2.230725
H      5.053598    0.462780    1.231270
H     -3.980554    2.720765   -0.801431
H     -1.852126    3.462393   -1.844923
H     -5.219415    1.010919    0.456497
H     -3.095565   -2.499795    1.578705
H      0.483246    2.976944   -2.328645
H      2.095195   -2.384647   -3.439955
