47

C     -1.058426    5.044259    0.440259
C     -2.865109   -2.817589   -2.264242
C     -0.090747    3.977950    0.040841
C     -0.608129    2.584574    0.481122
C      5.632288   -3.230174   -1.069568
C      4.812851   -2.557330   -1.922325
C      5.372977   -3.248221    0.283656
C     -3.875222    0.475429    1.844482
C     -4.927701    0.202817    0.988255
C      3.692756   -1.874369   -1.424222
C      4.278465   -2.578125    0.751175
C      0.430287    1.625088    0.031209
C     -2.560110    0.309539    1.444839
C     -4.654352   -0.245029   -0.294074
C      2.299646   -1.205480    0.463931
C      1.450731   -0.530655   -0.263392
C      3.430932   -1.888559   -0.086215
C      0.261366    0.186050    0.325118
C     -2.321726   -0.135762    0.166700
C     -3.369162   -0.417549   -0.715333
C     -0.955809   -0.371055   -0.270170
O     -0.781389   -1.140645   -1.288585
S     -2.951819   -0.991628   -2.355716
H     -1.098269    5.795136   -0.373188
H     -2.086863    4.657349    0.576051
H     -0.714476    5.607701    1.346519
H     -2.016232   -3.210682   -2.842048
H     -3.831499   -3.274882   -2.572628
H     -2.698335   -3.151903   -1.203504
H     -0.027274    3.928462   -1.045475
H      0.870356    4.140862    0.543403
H     -0.769240    2.583252    1.568657
H     -1.590845    2.442478   -0.037916
H      6.493133   -3.749303   -1.492865
H      4.996539   -2.527712   -2.999219
H      6.026040   -3.785100    0.967789
H     -4.111851    0.820581    2.831144
H     -5.952733    0.329004    1.290731
H      3.073790   -1.351827   -2.168898
H      4.084627   -2.600975    1.828539
H      0.547044    1.801044   -1.088840
H      1.418713    2.012605    0.427658
H     -1.774262    0.533232    2.165318
H     -5.447208   -0.474132   -1.007556
H      2.099970   -1.224402    1.541351
H      1.546940   -0.443510   -1.330800
H      0.319337   -0.030818    1.428734
