67

C     -5.612987   -1.148459   -0.000551
C     -1.815589    4.478556    0.682322
C     -0.507600   -0.391714   -1.612638
C     -1.447353   -0.381476    0.968945
C      1.355161   -0.459239    2.609914
C     -3.961841    1.397478    0.014850
C     -3.888067    0.401438   -1.102556
C     -3.366800    2.602237    0.298886
C     -3.440263   -1.990753   -0.664572
C     -1.059980    2.119133   -0.127343
C      5.570307   -0.294213   -1.513076
C      5.508456    0.104203    0.817599
C     -2.106672   -2.131835   -1.182446
C      6.915852   -0.021115   -1.515179
C      6.869817    0.381323    0.820077
C      0.022762    1.518937    0.710743
C      0.329651   -2.652741   -0.302448
C      1.163524   -2.153337    0.860624
C     -4.232617   -0.947872   -0.628896
C     -2.115114    3.011837    0.285232
C      4.866865   -0.228839   -0.331580
C     -0.925314   -2.063465   -0.248374
C      7.577255    0.317177   -0.359057
C      0.552105    0.150182    0.277548
C      3.438358   -0.515452   -0.310068
C     -0.705013   -0.546982   -0.218467
C      1.353198   -0.688621    1.077805
I      9.640710    0.739053   -0.344773
O      2.885950   -0.814080   -1.366384
O      2.755132   -0.452488    0.834373
H     -6.051800   -1.986344   -0.599222
H     -5.528115   -1.473355    1.034927
H     -6.216508   -0.239597   -0.098287
H     -1.451319    4.514866    1.705706
H     -2.664718    5.110901    0.440971
H     -0.985832    4.758460   -0.001523
H     -1.180634   -0.138226   -2.400807
H      0.000818   -1.295550   -2.139949
H      0.415749    0.246107   -1.950317
H     -2.361665   -0.992139    1.232233
H     -1.705388    0.538687    1.476436
H     -0.879011   -0.832725    1.902820
H      2.396801   -0.340368    2.977149
H      0.845097    0.448851    2.908953
H      1.033594   -1.381624    3.146132
H     -4.039883    0.686339    0.952706
H     -5.120114    1.582585    0.043913
H     -3.151284    0.524966   -1.854363
H     -4.834355    0.643833   -1.762897
H     -4.076544    3.454193    0.619163
H     -3.876832   -2.937114   -0.203793
H     -1.249160    1.660214   -1.112678
H     -0.404338    2.937469   -0.678866
H      5.030080   -0.564392   -2.422630
H      4.968591    0.158075    1.745320
H     -2.056078   -1.686473   -2.162463
H     -2.038011   -3.250359   -1.489819
H      7.482899   -0.067278   -2.430507
H      7.354661    0.642561    1.742716
H     -0.178336    1.670593    1.764477
H      0.987442    2.129140    0.695415
H      0.991694   -2.697309   -1.180329
H      0.234056   -3.775446   -0.063140
H      2.143649   -2.713939    0.791881
H      0.704861   -2.611571    1.787934
H     -1.389853   -2.499628    0.694303
H      1.229890    0.436727   -0.597800
