75

C      3.984056   -2.013355   -2.410980
C      3.672860    3.296526    2.408804
C     -4.352270   -0.680489    2.939430
C     -3.317007    1.448067   -3.856256
C      3.598355   -0.710634   -2.533526
C      3.653453   -2.703714   -1.268103
C      3.821477    2.064161    2.994234
C      2.916873    3.414262    1.276421
C     -3.882852    0.473031    2.373660
C     -4.006138   -1.875932    2.389372
C     -3.557920    0.101726   -3.739388
C     -2.567421    2.056963   -2.876440
C      2.875933   -0.101371   -1.498363
C      2.937706   -2.084398   -0.253286
C      3.187284    0.979522    2.399492
C      2.286214    2.314411    0.690960
C     -3.069324    0.419720    1.259846
C     -3.192028   -1.899506    1.276829
C     -3.049362   -0.576382   -2.665167
C     -2.069685    1.344152   -1.806407
C      2.538293   -0.777306   -0.350765
C      2.426496    1.089126    1.262565
C     -2.691290   -0.763881    0.667316
C     -2.286212   -0.014156   -1.646187
C      0.376375    0.339834    0.248397
C     -0.379940   -0.839211   -0.170669
C      1.789273   -0.114515    0.692001
C     -1.796456   -0.813792   -0.542567
O     -0.095569    0.926755    1.434765
O     -0.270457   -1.801445    0.868114
O      1.505541   -1.028465    1.748343
O     -2.022712   -2.173448   -0.972606
C      0.214839   -1.061755    0.716509
C      1.410930   -0.355173    0.163331
C     -1.004711   -0.946971   -0.163562
C      1.060075    1.006350   -0.387788
C     -1.491802    0.449816   -0.336792
C     -0.342232    1.387410   -0.134324
O     -0.638757    2.509855    0.261226
H      4.550032   -2.551111   -3.180230
H      4.164653    4.155314    2.864981
H     -4.995747   -0.692526    3.817256
H     -3.726584    1.963503   -4.710096
H      3.862129   -0.174580   -3.436361
H      3.958289   -3.751318   -1.158834
H      4.417842    1.930707    3.899835
H      2.822985    4.417721    0.838487
H     -4.175275    1.413844    2.833866
H     -4.347696   -2.840264    2.792714
H     -4.147584   -0.442277   -4.486129
H     -2.356946    3.133775   -2.941261
H      2.619567    0.931847   -1.697399
H      2.719731   -2.717903    0.615241
H      3.357938    0.033011    2.929660
H      1.727994    2.558870   -0.197101
H     -2.736734    1.337711    0.861363
H     -2.928535   -2.866604    0.854908
H     -3.280968   -1.653601   -2.632830
H     -1.505398    1.869154   -1.084813
H      0.601136    1.034997   -0.552622
H      0.222243   -1.307254   -1.010588
H     -0.033575    0.335361    2.197189
H     -0.795116   -1.495980    1.669684
H      2.314055   -1.448420    2.101703
H     -1.271980   -2.470236   -1.528465
H      0.037074   -0.756718    1.758699
H      0.470996   -2.157225    0.747713
H      1.951608   -0.978286   -0.607861
H      2.157950   -0.278647    1.007064
H     -1.817732   -1.523051    0.357319
H     -0.793037   -1.412549   -1.123534
H      1.328625    1.037843   -1.465993
H      1.711289    1.757472    0.148104
H     -1.948995    0.628618   -1.339463
H     -2.306122    0.693011    0.399350
