118

C      2.477353   -1.571866   -1.193538
C      4.196748   -0.606031    1.009160
C      3.136835    1.066262    2.261474
C     -3.863266   -4.529803    0.836145
C      0.514868    3.901202   -1.463052
C     -0.397262    4.732262   -0.847647
C      0.403657    2.530261   -1.421516
C     -1.437963    4.098479   -0.181790
C     -3.872369   -1.772906    1.030033
C     -3.856689   -0.399354    1.113634
C     -1.852512   -1.626363   -0.202076
C      2.082438    0.302016    0.324672
C      0.317856   -0.327157   -1.395866
C      1.425827   -0.754847   -0.493157
C     -2.859674   -2.391442    0.365443
C     -0.647902    1.898853   -0.748025
C     -1.808423   -0.231304   -0.134766
C     -1.544186    2.743444   -0.143012
C     -2.844384    0.340139    0.541575
N      2.943785   -0.059410    1.368527
N     -0.724323    0.477600   -0.773014
O     -2.843520   -3.771295    0.261676
S     -2.932561    2.106433    0.739473
C     -2.623518   -0.354054    1.869485
C     -3.893196    1.571779   -0.062601
C     -2.971794    0.813233   -2.097075
C      3.258299    4.534453    1.058555
C     -0.151410   -4.537724   -0.397562
C      0.766055   -4.864484   -1.373417
C     -0.137553   -3.282424    0.171874
C      1.682267   -3.913922   -1.756236
C      3.468357    2.158704   -0.335616
C      3.562972    0.969998   -1.025095
C      1.607068    1.251109    0.842651
C     -1.595249    0.697179   -0.104301
C     -0.284764   -0.784650    1.404998
C     -1.656512   -0.550581    0.745826
C      2.476959    2.294849    0.607525
C      0.773519   -2.301201   -0.193093
C      1.677841    0.031699    0.158293
C      1.662062   -2.676138   -1.164803
C      2.684708   -0.045449   -0.769291
N     -2.777110    1.062934   -0.712937
N      0.757648   -1.015588    0.453501
O      2.362356    3.480592    1.312162
S      2.890525   -1.522883   -1.726528
C     -0.497518    1.172096    0.046658
C      0.747232    0.828348    0.189227
C     -1.566315    0.302271   -0.280433
C      1.200380   -0.523506    0.025573
O     -2.735076    0.877534   -0.369776
O     -1.643928   -1.032995   -0.527812
O      0.581578   -1.542500   -0.255152
O      2.613040   -0.690403    0.227703
C      0.647040    0.839856   -0.195512
C     -0.649925    0.892635   -0.194958
C      1.459276   -0.288301    0.159453
C     -1.478874   -0.230266    0.180501
O      1.140145   -1.424509    0.535404
O      2.885878   -0.147247    0.089792
O     -1.113673   -1.339593    0.536568
O     -2.894329   -0.073020    0.147216
H      3.140647   -0.966366   -1.834228
H      2.989038   -2.239041   -0.488709
H      1.970712   -2.321841   -1.903670
H      5.045125   -0.095933    1.608443
H      4.482710   -0.452364   -0.029965
H      4.342181   -1.671819    1.299944
H      3.466084    1.921544    1.634962
H      3.832493    0.847833    3.074890
H      2.110976    1.337600    2.642105
H     -4.112916   -4.294020    1.873927
H     -4.800339   -4.419243    0.222606
H     -3.532224   -5.595653    0.818274
H      1.346824    4.371045   -1.996951
H     -0.320520    5.808906   -0.873575
H      1.171483    1.995754   -1.942979
H     -2.167770    4.712987    0.308849
H     -4.662515   -2.373592    1.475300
H     -4.666092    0.090047    1.645034
H     -1.101952   -2.176273   -0.698761
H      1.226208    0.923289    0.755650
H      2.596810    0.987619   -0.413050
H      0.782039    0.196820   -2.290155
H     -0.096684   -1.217198   -1.953480
H      0.943349   -1.525272    0.238004
H     -2.194309   -0.705712    2.851981
H     -3.590953   -0.866044    1.724506
H     -2.789236    0.722000    2.018594
H     -4.526043    0.782010    0.389044
H     -4.631685    2.068656   -0.796651
H     -3.641404    2.400817    0.664071
H     -2.130705    1.182938   -2.726118
H     -3.135248   -0.283394   -2.226891
H     -3.885286    1.301336   -2.480570
H      3.297548    4.779970   -0.035100
H      2.983582    5.456278    1.581934
H      4.278109    4.160561    1.305310
H     -0.871847   -5.285921   -0.097937
H      0.804012   -5.828289   -1.854207
H     -0.874774   -3.128436    0.933074
H      2.416245   -4.173059   -2.536291
H      4.170774    2.961834   -0.545575
H      4.363359    0.870575   -1.782358
H      0.869953    1.444215    1.596639
H     -1.264588    1.534334    0.606335
H     -0.732722    0.614930   -0.839633
H     -0.351914   -1.718505    2.050966
H     -0.153709    0.064333    2.072862
H     -1.948689   -1.372856    0.063194
H     -0.763343    2.262337    0.194865
H      1.480234    1.643552    0.451563
H     -2.346767   -1.635906   -0.084567
H      2.930483   -1.660829    0.382151
H      1.150362    1.802421   -0.513690
H     -1.155715    1.854799   -0.499203
H      3.431234   -0.974637   -0.193101
H     -3.421419   -0.912137   -0.052471
