136

C     -3.065844    1.736412    2.292288
C     -5.215278    0.483698    2.048598
C     -2.805408   -1.757687    1.832822
C     -4.750623   -2.191947    0.443606
C     -3.975939   -0.413046   -2.706334
C     -4.220377    1.906854   -1.981647
C      0.949294   -1.918776   -1.786058
C      3.451262   -0.155292    1.275343
C      7.789701    0.828423    1.178922
C      6.928552   -0.378771    1.037198
C      7.150047    2.114651    0.789947
C     -0.849947   -0.278892   -0.382251
C     -4.101493    1.220287    1.328314
C     -3.374282   -1.613210    0.457710
C     -4.432417    0.453853   -1.565277
C      1.473451   -0.931871   -0.738614
C      3.395915    0.469384   -0.101736
C      0.528745    0.275458   -0.735729
C      2.863202   -0.496174   -1.125704
C      4.788093    0.956589   -0.470274
O      0.576994    0.835923   -1.987061
O      2.810623    0.211478   -2.344631
O     -1.809497    0.725937   -0.412177
S      5.979749   -0.433712   -0.485341
S      5.338330    2.069474    0.869501
Si    -3.363530    0.180699   -0.030583
C     -4.173316   -2.446415   -0.377599
C     -3.405309   -1.796466    1.810400
C     -3.145657    2.768832    0.920585
C     -2.077901    1.118617    2.252300
C     -5.359278   -0.253062   -2.033063
C     -5.926502    1.170335   -0.149106
C      1.897757    0.622269   -2.139263
C      2.580139    0.001677    2.047753
C      7.631882   -0.406750    0.067749
C      6.928285   -0.179256   -1.255903
C      7.394581    0.712243    1.051708
C     -1.024325   -0.130072   -1.417016
C     -3.236444   -1.511555    0.346804
C     -3.352965    1.338225    1.469451
C     -4.766150    0.792477   -1.102983
C      1.492788   -0.484893   -1.158073
C      3.230968   -0.200091    0.742420
C      0.219706   -0.107017   -0.492106
C      2.568009   -0.967431   -0.318086
C      4.698553   -0.476325    0.754516
O      0.401527    1.343128   -0.384001
O      3.388800   -1.833480   -1.051106
O     -1.822413    0.781803   -0.748954
S      5.215586   -0.627282   -1.010898
S      5.641206    0.891418    1.472383
Si    -3.301045    0.259295   -0.148171
H     -3.236460    1.230761    3.269172
H     -2.072861    1.486258    1.913018
H     -3.201080    2.833372    2.393365
H     -4.798700   -0.284059    2.725796
H     -5.863173    1.190484    2.607569
H     -5.855280    0.020223    1.278096
H     -1.916668   -2.432905    1.764741
H     -3.508468   -2.291610    2.532193
H     -2.499014   -0.832433    2.316913
H     -5.432115   -1.735233   -0.297811
H     -4.661658   -3.271026    0.120827
H     -5.211409   -2.276507    1.462668
H     -4.690513   -1.242448   -2.922730
H     -2.963638   -0.790927   -2.450123
H     -3.836600    0.185646   -3.647105
H     -3.137144    2.115977   -2.139359
H     -4.748491    2.137988   -2.923533
H     -4.543330    2.603974   -1.166353
H      0.414287   -1.414355   -2.592677
H      1.839717   -2.429797   -2.206036
H      0.289445   -2.659856   -1.320570
H      2.425237   -0.105643    1.711709
H      4.106116    0.438248    1.944826
H      3.853608   -1.174718    1.239339
H      8.106838    0.903445    2.252123
H      8.734531    0.719254    0.582880
H      7.618223   -1.273887    1.025022
H      6.291694   -0.552999    1.952200
H      7.475298    2.928646    1.488590
H      7.458939    2.476062   -0.227305
H     -0.769638   -0.635462    0.665209
H     -1.070561   -1.135079   -1.016002
H     -4.614822    2.100354    0.840925
H     -2.766203   -2.191411   -0.305501
H     -5.498673    0.330342   -1.319042
H      1.476586   -1.453795    0.216353
H      2.763176    1.371586   -0.097035
H      0.818582    1.032101    0.012849
H      3.510253   -1.392799   -1.228356
H      4.826233    1.424976   -1.451753
H     -0.151900    0.550368   -2.590954
H      2.980310   -0.402856   -3.114968
H     -3.980416   -2.595363   -1.431335
H     -3.888674   -3.477582    0.080900
H     -5.210155   -2.338219   -0.042619
H     -2.413562   -1.851540    2.284397
H     -3.726765   -2.912079    1.855940
H     -4.149980   -1.162719    2.285592
H     -2.562081    3.355233    1.697033
H     -4.030522    3.265183    0.610444
H     -2.398134    2.635063    0.078838
H     -1.794882    0.147234    2.543809
H     -2.255840    1.705957    3.212540
H     -1.217887    1.710525    1.793982
H     -6.024074    0.317573   -2.762143
H     -6.131443   -0.847233   -1.458412
H     -4.669842   -0.804826   -2.632264
H     -5.861657    0.600427    0.794243
H     -6.861879    1.000057   -0.729043
H     -5.839987    2.243961    0.032677
H      2.610684    1.319268   -1.639089
H      1.038197    1.212989   -2.419330
H      2.427822    0.246926   -3.019391
H      2.865426   -0.857736    2.769179
H      1.489387    0.109301    2.073788
H      3.016067    0.912720    2.562022
H      7.188203   -1.353251    0.469325
H      8.690991   -0.491683   -0.122218
H      7.351990   -0.894149   -1.994670
H      6.997902    0.834943   -1.644098
H      7.998009    0.471492    1.946350
H      7.775934    1.627556    0.603223
H     -0.691358    0.290358   -2.371927
H     -1.419212   -1.124231   -1.580578
H     -2.199607   -1.955798    0.100307
H     -4.234963    1.223633    2.002488
H     -4.610425    1.685575   -1.741412
H      1.220099   -1.337002   -1.863503
H      3.177204    0.963839    0.346056
H      0.007808   -0.565486    0.439989
H      1.991640   -1.801963    0.347042
H      4.894494   -1.400383    1.313639
H      0.735522    1.561664    0.488132
H      2.997485   -2.050460   -1.929481
