51

C     -3.690763    1.575558   -0.359013
C     -3.305872    0.183861   -0.657955
C      4.402864   -1.005048   -0.800483
C      4.903674    0.170337   -0.286259
C      3.022734   -1.195752   -0.736829
C      4.051370    1.103633    0.264806
C      0.151159   -0.139145   -1.466523
C     -0.302372   -1.533633   -1.734984
C     -0.848635   -1.089876    1.740894
C     -2.133331   -1.869097   -0.294059
C     -1.226712    2.564957    1.470722
C     -2.455685   -0.442117    0.104093
C     -1.792896    0.060845    1.305527
C     -0.857462    1.197422    1.147593
C      2.173481   -0.260047   -0.186118
C      2.674940    0.913467    0.329532
C      0.067534   -1.409493    0.550315
C      0.390955    0.992426    0.728218
C      0.692591   -0.204862   -0.050875
N      1.619281    1.711018    0.894555
N     -0.732853   -2.046284   -0.450218
O     -0.404603    3.503029    1.350354
C     -0.984628    0.059838    0.077529
C      0.489249   -0.324463    0.133295
O      1.228855    0.816745   -0.088891
H     -2.947505    2.261232   -0.770499
H     -3.960389    1.732224    0.699133
H     -4.648330    1.826205   -0.925768
H     -3.738816   -0.306277   -1.516538
H      5.053681   -1.752456   -1.237229
H      5.983017    0.374543   -0.310249
H      2.677438   -2.134032   -1.153039
H      4.425089    2.048985    0.681710
H     -0.636288    0.593859   -1.615827
H      0.961739    0.124926   -2.207149
H     -1.123172   -1.580500   -2.486341
H      0.483503   -2.213083   -2.111401
H     -0.235524   -0.670995    2.552045
H     -1.389674   -1.983082    2.033181
H     -2.646289   -2.146851   -1.231109
H     -2.574829   -2.545909    0.483045
H     -2.218243    2.791488    1.821295
H     -2.498530    0.230946    2.153630
H      0.879047   -2.062312    0.944490
H      1.754673    2.629891    1.333326
H     -1.113451    1.127183   -0.206533
H     -1.457693   -0.545964   -0.712267
H     -1.423203   -0.105213    1.067259
H      0.713892   -1.152907   -0.542248
H      0.770842   -0.685838    1.165910
H      1.776136    0.810618   -0.894053
