92

C     -2.029606   -3.441227   -0.032878
C      5.713321    0.749860    0.321280
C      2.944882   -2.760886   -1.504020
C      1.662493    1.805137    0.338569
C      3.013392    1.437795    0.330974
C     -3.979043   -0.585695   -0.310571
C     -3.511772   -1.681699    0.621491
C     -3.381302    1.838876    0.143356
C      0.067701   -1.573451   -0.193865
C     -1.355799    4.804434    0.721417
C     -3.037397    0.546875   -0.079954
C      0.721542    0.850632    0.161591
C      1.048158   -0.492591   -0.028186
C     -1.339058   -1.171349   -0.380531
C      3.357387    0.119993    0.144564
C     -2.432531    2.828898    0.360279
C     -1.644657    0.252057   -0.081771
C     -0.706535    1.226395    0.133361
C      2.400022   -0.855824   -0.035752
C     -1.077807    2.551047    0.361256
N     -2.183527   -2.058799    0.352669
O      4.705643   -0.242572    0.136990
O      2.723120   -2.190840   -0.225523
O     -2.624103    4.177484    0.599158
O     -0.467193    3.738677    0.601769
C     -2.722228   -2.985963   -0.591448
C      5.628139    0.273281   -1.210283
C      3.003673   -2.885720    1.198130
C      1.735986    1.651445   -0.593829
C      3.033980    1.178248   -0.795747
C     -3.970615   -0.333438    0.667781
C     -3.361471   -1.590993    1.262340
C     -3.198593    1.994430    0.374325
C      0.050715   -1.536850    0.447896
C     -1.055754    4.843932   -0.353119
C     -2.926949    0.649280    0.388040
C      0.748911    0.782277   -0.227794
C      1.043706   -0.577519   -0.053424
C     -1.313666   -1.202568   -0.003055
C      3.340082   -0.157461   -0.631914
C     -2.227865    2.929336    0.121514
C     -1.612124    0.237678    0.133347
C     -0.640780    1.189610   -0.115568
C      2.348581   -1.040094   -0.260794
C     -0.910785    2.544861   -0.132229
N     -2.307487   -2.102667    0.471927
O      4.623149   -0.646592   -0.829759
O      2.607397   -2.391639   -0.083952
O     -2.301529    4.310874    0.062246
O     -0.206706    3.720360   -0.341825
H     -2.788289   -4.019078    0.533574
H     -2.178652   -3.590621   -1.127558
H     -1.045834   -3.791871    0.308133
H      5.497093    1.639256   -0.323767
H      6.703855    0.382730   -0.006456
H      5.772044    1.082805    1.367008
H      4.030484   -2.903893   -1.643036
H      2.481678   -2.144336   -2.302840
H      2.477852   -3.778264   -1.518338
H      1.395797    2.833092    0.482784
H      3.719124    2.233869    0.476039
H     -4.979536   -0.251637    0.054755
H     -4.015731   -0.889149   -1.358733
H     -4.160963   -2.582600    0.535490
H     -3.557341   -1.259526    1.656818
H     -4.454410    2.080772    0.147070
H      0.147196   -2.196524    0.739406
H      0.416573   -2.212519   -1.040128
H     -1.211509    5.270432    1.716092
H     -1.260018    5.555211   -0.092233
H     -1.576743   -1.331378   -1.493845
H     -3.283273   -2.383844   -1.353961
H     -1.788893   -3.335724   -1.106314
H     -3.323293   -3.846275   -0.239006
H      5.399013    0.653192   -2.219231
H      6.650242   -0.162995   -1.126847
H      5.624818    1.161910   -0.524895
H      3.253977   -3.957725    1.065600
H      2.214214   -2.763789    1.954592
H      3.910951   -2.337905    1.563865
H      1.560970    2.682514   -0.738185
H      3.784737    1.872983   -1.079804
H     -4.634388    0.096249    1.467201
H     -4.623073   -0.559305   -0.187844
H     -4.186884   -2.349104    1.266140
H     -3.052136   -1.462022    2.297922
H     -4.221700    2.324124    0.571656
H      0.355999   -2.576839    0.178032
H      0.078059   -1.468543    1.581383
H     -1.121689    5.239780   -1.405679
H     -0.729304    5.664896    0.285877
H     -1.276113   -1.345688   -1.153308
