44

C     -5.144848    1.642757    0.181074
C     -5.382121    0.518086   -0.570824
C     -4.073363    1.645876    1.046639
C     -4.554728   -0.605928   -0.463548
C     -3.242708    0.529524    1.159545
C      3.080486   -0.013626   -1.887455
C      3.894803    2.656030    1.314994
C      2.435545   -1.353250   -1.505192
C      3.188437    1.477048    1.570979
C      4.011820    2.051482   -0.998517
C     -2.564597   -1.762394    0.415013
C     -0.377387   -1.255262    0.923658
C     -3.487406   -0.588204    0.401978
C      3.308898    0.874896   -0.741598
C      4.295620    2.924681    0.022199
C      0.494301   -2.083230    0.040311
C      2.908682    0.606540    0.518933
C      1.529312   -1.052327   -0.403061
F      4.979380    4.093973   -0.156706
N     -1.588466   -1.694023    1.424738
O     -0.136135   -2.562465   -1.115637
O      2.183678   -0.584300    0.778067
Br     0.763395    0.000000    0.000000
H     -5.811131    2.510934    0.062729
H     -6.223804    0.515838   -1.253873
H     -3.892673    2.527107    1.629607
H     -4.821137   -1.447121   -1.090320
H     -2.405210    0.507643    1.832152
H      2.366071    0.519212   -2.576838
H      4.001778   -0.238214   -2.412169
H      4.102023    3.324118    2.160481
H      1.813045   -1.634525   -2.407085
H      3.186064   -2.110487   -1.355273
H      2.843477    1.200826    2.558605
H      4.355734    2.306448   -1.994861
H     -2.113006   -1.782258   -0.585178
H     -3.219222   -2.659296    0.583413
H     -0.508899   -0.258958    0.343640
H      0.335614   -0.941076    1.773784
H      0.938861   -2.923522    0.565629
H      0.907836   -0.137049   -0.761203
H     -1.893332   -1.316001    2.312057
H      0.278712   -3.429503   -1.340888
H     -0.763395    0.000000    0.000000
