174

C      4.094850   -0.970623    1.673202
C      4.869739   -1.410529   -0.691112
C     -2.289185   -2.892650   -1.384930
C     -0.844279   -3.338860    0.458181
C     -2.768256   -1.401948    1.788242
C      2.511663   -1.108074   -0.220260
C     -1.850483   -0.122524   -1.329743
C      3.739375   -1.156933    0.239615
C     -1.860417    1.166442   -1.062584
C     -0.887800   -1.071918   -0.684137
C      1.302078   -0.860198    0.620892
C     -0.956676    1.870157   -0.115839
C     -0.202983    0.933455    0.711240
C     -2.845392    1.993315   -1.751729
C     -1.859646    2.756373    0.758206
C      1.156290    1.310541    1.207500
C     -2.971435    3.429231   -1.401877
C     -2.385867    3.845744   -0.140431
C      2.157753    1.737791    0.212135
C      2.033896    1.209964   -1.117563
C      0.829759    0.417731   -1.328383
C     -1.611467   -2.194677   -0.139359
C      0.176002   -0.282472   -0.130194
O     -3.605112    1.545246   -2.640864
O     -0.980892    3.369608    1.675694
O      0.377069    0.333771   -2.447125
O     -2.748848   -1.974836    0.597148
O      1.592309    0.040369    1.651176
O     -3.762255    3.825135   -0.347544
O      1.952679    2.573872   -0.839255
C      4.087037   -0.831896    0.403676
C      4.315933   -1.928049   -1.879144
C     -0.076889   -3.025504   -0.096990
C     -2.414257   -2.801633    0.511597
C     -0.823840   -3.280610    2.566619
C      2.155074   -1.053192   -1.129735
C     -2.207496    0.016727    0.754386
C      3.441264   -1.247876   -0.859544
C     -2.278594    1.313530    0.732843
C     -1.186679   -0.774290   -0.025549
C      1.353410   -0.370321   -0.065514
C     -1.303277    2.066505   -0.101304
C     -0.045054    1.352070    0.192146
C     -3.268889    2.013957    1.502383
C     -1.227510    3.454837    0.509044
C      1.230415    1.869665   -0.266132
C     -3.589257    3.422409    1.165622
C     -2.557177    4.126751    0.548972
C      1.452947    2.106482   -1.701994
C      0.914073    1.136065   -2.577029
C     -0.003319    0.146412   -1.958886
C     -1.040701   -2.119324    0.615538
C     -0.015177   -0.033935   -0.457351
O     -3.886206    1.444559    2.480529
O     -0.336962    4.276198   -0.183862
O     -0.726960   -0.502830   -2.642704
O     -0.757164   -2.048881    1.973733
O      2.086417    0.825394    0.144012
O     -2.996043    4.434419    1.924586
O      0.425496    2.430421   -2.572132
C      4.809329   -1.773744   -0.344333
C      4.053968   -0.114645    1.437436
C     -1.514681   -1.441583    1.685398
C     -1.846964   -3.079962   -0.067153
C      0.268544   -3.651761    1.617057
C      2.519906   -1.004155   -0.289970
C     -2.008452   -0.450124   -1.107987
C      3.724683   -0.953640    0.253188
C     -2.310165    0.813160   -1.027008
C     -0.699517   -1.040913   -0.675786
C      1.457662   -0.168919    0.335464
C     -1.407842    1.887689   -0.492795
C     -0.231832    1.306344    0.101298
C     -3.629416    1.297234   -1.470623
C     -2.246752    2.576690    0.575349
C      1.053379    2.046953    0.086246
C     -4.165621    2.592051   -0.986695
C     -3.456783    3.238375   -0.005031
C      1.518487    2.571958   -1.205653
C      1.556801    1.577174   -2.242586
C      0.838306    0.333175   -1.911963
C     -0.897413   -2.006519    0.448869
C      0.272191    0.019031   -0.566160
O     -4.330110    0.627147   -2.267090
O     -1.387118    3.514245    1.181324
O      0.690433   -0.500375   -2.784051
O      0.321454   -2.613179    0.727759
O      1.978052    1.105353    0.535949
O     -4.690059    2.581912    0.309043
O      0.780258    2.705394   -2.340052
H      5.037632   -1.513861    1.914981
H      3.336670   -1.336607    2.368683
H      4.300733    0.097055    1.863897
H      4.600456   -1.268476   -1.750775
H      5.750089   -0.776430   -0.464091
H      5.118406   -2.502785   -0.587250
H     -1.547051   -2.778553   -2.189457
H     -3.210391   -2.357465   -1.655868
H     -2.506529   -3.949219   -1.134332
H     -0.708414   -3.255530    1.553887
H     -1.482979   -4.249902    0.351784
H      0.074489   -3.611357   -0.100165
H     -2.153653   -1.853524    2.599483
H     -3.832728   -1.667490    2.197662
H     -2.767875   -0.325680    1.907672
H      2.337671   -1.256854   -1.275758
H     -2.553761   -0.522227   -2.042816
H     -0.381529   -1.483434   -1.681055
H      1.122264   -1.831634    1.109136
H     -0.375067    2.584644   -0.723752
H     -0.787173    0.689974    1.606620
H     -2.639335    2.181597    1.254992
H      1.101917    1.950551    2.107617
H     -2.949340    4.117143   -2.267603
H     -1.857805    4.833951   -0.132899
H      3.186887    1.850085    0.668712
H      2.921543    1.002689   -1.775643
H     -1.497597    3.660838    2.456037
H      4.341681    0.256469    0.390049
H      3.406942   -0.956704    1.292833
H      4.959578   -1.470557    0.612126
H      4.959517   -2.657316   -1.339848
H      4.919286   -1.126741   -2.360934
H      3.708378   -2.480352   -2.599480
H     -0.504470   -4.092838   -0.128516
H     -0.104438   -2.737070   -1.165221
H      0.911563   -3.114469    0.357280
H     -2.287043   -3.911406    0.430048
H     -2.997296   -2.615173    1.410707
H     -2.928485   -2.499887   -0.434130
H     -1.778425   -3.798890    2.516271
H     -0.606488   -3.128754    3.661418
H     -0.050649   -3.993959    2.181867
H      1.737157   -1.372547   -2.057219
H     -2.914791   -0.591207    1.363706
H     -1.791561   -1.009685   -0.968941
H      1.402945   -0.870444    0.917852
H     -1.614461    2.082207   -1.146786
H      0.025233    1.163100    1.285961
H     -0.775260    3.313526    1.531268
H      1.501073    2.793904    0.300828
H     -4.689922    3.575742    1.068058
H     -2.770309    4.969567   -0.151543
H      2.423042    2.599484   -1.946633
H      1.522527    0.794123   -3.456721
H     -0.725941    4.461817   -1.072113
H      5.686091   -1.867079    0.328717
H      5.101322   -1.254379   -1.299645
H      4.381506   -2.745851   -0.640523
H      3.190939   -0.070885    2.152893
H      4.959219   -0.494589    1.931674
H      4.248923    0.944983    1.158713
H     -0.762287   -1.270010    2.479296
H     -2.171767   -0.569439    1.493596
H     -2.213782   -2.203142    2.148897
H     -1.556436   -3.488020   -1.031669
H     -2.033357   -3.870791    0.717143
H     -2.875997   -2.629038   -0.197964
H     -0.127046   -3.387425    2.617409
H     -0.171152   -4.530079    1.146759
H      1.343416   -3.941826    1.825077
H      2.339425   -1.623274   -1.138984
H     -2.784818   -1.110584   -1.530152
H     -0.400440   -1.696711   -1.555151
H      1.203456   -0.547973    1.344840
H     -1.293508    2.636811   -1.296360
H     -0.420844    1.031093    1.176190
H     -2.530498    1.792232    1.306747
H      0.989680    2.867859    0.854875
H     -4.765337    3.147199   -1.766243
H     -3.523688    4.331851    0.211358
H      2.364544    3.304201   -1.125489
H      2.434647    1.545533   -2.923764
H     -1.632937    3.704966    2.102315
