174

C      4.974302    0.548027   -0.852182
C      3.940945   -0.055836    1.390020
C     -1.690761    3.267731   -0.452558
C      0.692669    2.952113   -0.522517
C     -0.437282    3.567084    2.011344
C      2.543216    0.345501   -0.588065
C     -2.278095    0.645902   -0.011675
C      3.737316    0.283032   -0.051586
C     -2.686280   -0.581742    0.119051
C     -0.897603    0.992393   -0.527897
C      1.356086    0.068173    0.274980
C     -1.746032   -1.669769   -0.257382
C     -0.480560   -1.242109    0.335948
C     -3.991933   -0.923366    0.616609
C     -2.272824   -3.004763    0.008830
C      0.689583   -2.093732    0.398311
C     -4.259839   -2.262283    1.240270
C     -3.247511   -3.212361    1.102848
C      1.199443   -2.637653   -0.905620
C      1.159544   -1.798304   -2.043796
C      0.448773   -0.538371   -1.851251
C     -0.572073    2.338108    0.061555
C      0.073737   -0.070064   -0.462249
O     -4.918531   -0.079289    0.523094
O     -2.919149   -3.470622   -1.165653
O      0.151204    0.149746   -2.823166
O     -0.618465    2.344305    1.428550
O      1.663287   -1.193709    0.849797
O     -3.236702   -2.560718    2.300669
O      0.361109   -2.935418   -1.945824
C     -4.927982   -1.348955    1.134094
C     -4.353246    0.605193   -0.400204
C      1.019250    2.481912    0.359465
C      0.944469    2.156808    2.778940
C     -1.138400    3.518698    1.720932
C     -2.623003   -0.839929    0.447655
C      1.848898   -0.204589    1.253833
C     -3.918235   -0.562391    0.412681
C      2.455430   -0.694290    0.193446
C      0.430579    0.260126    1.254715
C     -1.590701   -0.053345   -0.276907
C      1.851637   -0.866415   -1.151661
C      0.496836   -0.323925   -1.197332
C      3.846573   -1.120409    0.296889
C      2.843712   -0.180866   -2.102899
C     -0.517142   -1.006481   -2.035347
C      4.543890   -1.630775   -0.940545
C      4.073106   -1.092562   -2.183814
C     -0.772473   -2.440034   -1.793259
C     -0.766405   -2.884416   -0.456306
C     -0.256071   -1.883771    0.488982
C      0.294786    1.717045    1.463416
C     -0.213075   -0.405938    0.138633
O      4.447613   -1.061216    1.398536
O      2.318988   -0.063202   -3.373947
O      0.132724   -2.291160    1.570198
O     -0.983292    2.192435    1.489718
O     -1.693501   -0.330818   -1.661101
O      5.248820   -0.635363   -1.595999
O      0.139778   -3.359822   -1.373433
C      5.022841    1.628963    0.883585
C      4.574517   -0.600877   -0.238657
C      0.342913   -2.104019    2.401729
C     -1.601414   -0.930141    3.227614
C     -2.247197   -2.940150    1.653302
C      2.730739    0.801930    0.598406
C     -1.743325    0.764669    1.085913
C      4.032254    0.618263    0.423362
C     -2.206279    0.895908   -0.116311
C     -0.411185    0.118268    1.423551
C      1.753149   -0.224220    0.129329
C     -1.510894    0.435750   -1.371675
C     -0.234523   -0.198363   -1.056217
C     -3.504873    1.526248   -0.375766
C     -2.511897   -0.511593   -2.019956
C      0.911537    0.015055   -1.955172
C     -4.031758    1.442613   -1.750310
C     -3.645753    0.301081   -2.554381
C      1.281012    1.376714   -2.324702
C      1.278750    2.289725   -1.158989
C      0.513942    1.801448    0.010363
C     -0.755807   -1.203004    1.963409
C      0.392960    0.304825    0.245352
O     -4.131578    2.103285    0.519435
O     -1.815188   -1.123436   -3.082256
O      0.005704    2.620663    0.747147
O     -1.640195   -1.831134    1.087372
O      1.984472   -0.542337   -1.228934
O     -4.870382    0.310435   -1.930606
O      0.512480    2.485370   -2.282560
H      5.546219    1.349496   -0.346189
H      5.613126   -0.378174   -0.779081
H      4.747004    0.777676   -1.905981
H      4.917280    0.316033    1.752161
H      3.169219    0.440702    2.026827
H      3.920295   -1.145432    1.564517
H     -2.131484    2.877367   -1.392328
H     -1.299360    4.276379   -0.697072
H     -2.463012    3.421342    0.325207
H      0.548722    4.052443   -0.760479
H      0.847984    2.487607   -1.496008
H      1.520609    2.938958    0.183117
H      0.544026    4.020945    1.763005
H     -1.286445    4.278946    1.834365
H     -0.431029    3.409298    3.123406
H      2.455912    0.595876   -1.638530
H     -2.971066    1.454597    0.266096
H     -1.125423    1.230318   -1.616691
H      1.369522    0.764350    1.108250
H     -1.625390   -1.549614   -1.379272
H     -0.658339   -0.823794    1.368511
H     -1.446475   -3.729513    0.160701
H      0.631891   -2.918551    1.124966
H     -5.276659   -2.462092    1.538383
H     -3.527821   -4.308798    1.195611
H      2.048656   -3.353018   -0.774655
H      1.979060   -1.826927   -2.796984
H     -2.354595   -3.368427   -1.952311
H     -4.592237   -2.396928    1.329824
H     -5.915000   -1.380986    0.621579
H     -5.078263   -0.870208    2.128863
H     -3.857651    0.503075   -1.391501
H     -4.024231    1.573241    0.025623
H     -5.442436    0.633654   -0.470490
H      1.456360    3.437229    0.784247
H      1.903093    1.929990   -0.000889
H      0.326248    2.811592   -0.431456
H      1.675897    2.952310    2.640130
H      0.175719    2.402219    3.547035
H      1.476478    1.271049    3.175835
H     -2.222617    3.812770    1.724339
H     -0.682687    3.956419    2.600412
H     -0.725004    4.072122    0.826423
H     -2.307257   -1.685706    1.038399
H      2.445455   -0.149865    2.183319
H     -0.004121   -0.222951    2.199891
H     -1.892639    0.992430   -0.190697
H      1.949658   -1.941137   -1.428940
H      0.550987    0.726874   -1.568545
H      3.138727    0.804127   -1.691917
H     -0.344518   -0.841505   -3.110397
H      4.959713   -2.652351   -0.872350
H      4.213318   -1.652352   -3.107327
H     -1.534897   -2.867486   -2.509142
H     -1.482148   -3.642182   -0.080604
H      2.650492    0.773011   -3.831043
H      4.507270    2.541908    1.281924
H      5.661480    1.259907    1.695636
H      5.649845    1.982982    0.035151
H      5.551755   -0.845144    0.240181
H      4.822142   -0.315137   -1.285773
H      3.871127   -1.457185   -0.199464
H      1.172159   -1.570560    2.862576
H      0.648187   -2.857924    1.618984
H     -0.052832   -2.778518    3.224369
H     -2.621797   -0.649699    2.954110
H     -1.541044   -1.819102    3.894589
H     -1.054195   -0.114624    3.761568
H     -2.836175   -2.696909    2.559680
H     -1.474230   -3.703799    1.812506
H     -2.971453   -3.327393    0.907244
H      2.411830    1.712799    1.088515
H     -2.339575    1.139037    1.922881
H      0.002745    0.743620    2.259167
H      2.003947   -1.143114    0.667254
H     -1.483827    1.319693   -2.048524
H     -0.369522   -1.298733   -0.914685
H     -2.875218   -1.259164   -1.297087
H      0.789325   -0.652205   -2.850619
H     -4.342145    2.372595   -2.271094
H     -3.650281    0.443959   -3.674355
H      2.147477    1.442817   -3.027302
H      2.205936    2.872551   -0.999863
H     -2.307955   -0.974599   -3.910853
