31

C      4.873082    0.050766    0.796259
C      3.791948   -0.421798    1.481734
C      4.762721    0.472298   -0.525154
C      2.575521   -0.466655    0.810126
C      3.554670    0.414266   -1.151065
C     -3.291510    0.865745    0.755241
C     -4.461015   -0.094356    0.709582
C     -0.035894   -0.599063   -0.575929
C      2.430587   -0.060926   -0.486757
C      1.180635   -0.102916   -1.197203
C     -0.961906    0.536945   -0.114212
C     -2.151904   -0.122951    0.495946
C     -4.086531   -0.978309   -0.417400
O      1.105952    0.293972   -2.392293
O     -1.368203    1.237434   -1.266881
O     -4.933846   -1.552880   -1.168577
O     -2.705898   -1.026687   -0.455184
H      5.819914    0.089514    1.308370
H      3.858674   -0.753715    2.507132
H      5.626022    0.842826   -1.052154
H      1.721301   -0.844357    1.369349
H      3.489136    0.750620   -2.190917
H     -3.397698    1.568824   -0.090186
H     -3.173020    1.357041    1.735311
H     -5.426485    0.421804    0.551071
H     -4.441980   -0.705442    1.636046
H     -0.663306   -1.196151   -1.287777
H      0.092735   -1.261053    0.300593
H     -0.453144    1.250577    0.528594
H     -1.872794   -0.625148    1.429425
H     -1.457767    0.659774   -2.043091
