31

C      4.861927   -0.271364   -0.200267
C      4.202186    0.843039    0.240023
C      4.231497   -1.498273   -0.167328
C      2.905816    0.721293    0.714057
C      2.922735   -1.605979    0.313807
C     -3.495960    0.308108   -0.829809
C     -2.914895    1.403389   -0.018729
C      2.274488   -0.488418    0.750248
C     -2.382031   -0.331367   -1.633163
C     -1.686496    1.094110    0.731388
C     -1.524314   -1.042621   -0.578017
C     -0.766389    0.091581    0.109729
Cl    -0.392608   -2.173987   -1.294067
O     -2.878066   -1.200973   -2.570991
O     -2.004882    0.700420    2.044818
Se     0.497779   -0.611163    1.407380
H      5.872156   -0.152111   -0.565546
H      4.668470    1.823898    0.228078
H      4.781278   -2.358705   -0.522688
H      2.418862    1.632500    1.054046
H      2.470581   -2.585864    0.320516
H     -3.954730   -0.458531   -0.164750
H     -4.262838    0.733204   -1.506850
H     -3.698571    1.748698    0.708367
H     -2.758775    2.288426   -0.695159
H     -1.784712    0.502853   -2.066864
H     -1.100935    2.046988    0.851382
H     -2.186163   -1.553667    0.167141
H     -0.194721    0.597810   -0.698651
H     -2.153304   -1.668283   -3.025013
H     -1.967382    1.464990    2.675826
