36

C     -0.716516    3.066225   -0.117010
C      2.493749   -0.668332   -1.653870
C     -2.461691   -1.585808    0.712903
C     -0.710284   -0.312665    1.949445
C      0.780264   -0.628462    1.754897
C     -0.707302   -0.779004   -1.639491
C     -0.530914    1.595146   -0.013864
C      2.263599   -0.548451   -0.165446
C     -1.870407    0.150038   -1.475154
C     -0.208168   -1.112879   -0.293544
C     -1.717231    0.671712   -0.078434
C      0.704786    1.142863    0.134844
C      2.937900    0.707406    0.263391
C     -1.339247   -0.631674    0.633748
C      0.894071   -0.301846    0.257649
O     -2.710342    0.390776   -2.303860
O      4.135023    0.843612    0.602541
O      1.974719    1.702792    0.213364
H     -1.058808    3.427540    0.874741
H     -1.504435    3.220130   -0.901871
H      0.221239    3.552503   -0.456857
H      3.606646   -0.831803   -1.770522
H      2.021562   -1.537165   -2.110781
H      2.294470    0.297714   -2.129716
H     -2.995876   -1.438599    1.677336
H     -2.047548   -2.622578    0.758746
H     -3.199710   -1.461439   -0.101209
H     -0.738110    0.777887    2.204894
H     -1.129970   -0.860628    2.800336
H      1.422130    0.005863    2.359170
H      0.896683   -1.714310    1.937725
H     -1.084943   -1.732332   -2.113829
H     -0.018415   -0.298304   -2.326937
H      2.765371   -1.431323    0.291959
H     -0.038228   -2.175661   -0.093662
H     -2.624067    1.121056    0.318368
