62

C     -5.859126   -0.649706    0.450924
C     -3.883716   -0.799160    1.891230
C      6.795292    1.943217    0.620987
C      6.384429    1.336055   -0.544880
C      5.841161    2.343879    1.523527
C      5.028559    1.121640   -0.825219
C      4.492503    2.142378    1.268583
C      2.640920   -1.322477   -1.578822
C      3.542038   -2.055029    0.505826
C      3.236180   -2.420400   -2.202563
C      4.133236   -3.141076   -0.100181
C     -4.139336   -0.964289   -1.790153
C     -4.469304    0.514433   -1.525065
C      2.645947    1.339226   -0.123346
C      0.678634   -0.096437    0.179251
C     -2.266311   -1.146748   -0.227589
C     -4.079843    1.910005    0.546098
C      4.103711    1.537888    0.105629
C      2.797649   -1.148546   -0.233534
C      2.152623    0.035031    0.440869
C     -3.707632   -1.552891   -0.491489
C      3.967803   -3.310368   -1.473115
C     -2.394242    0.380775   -0.337266
C     -0.145853    0.938346    0.806987
C     -4.375514   -0.584808    0.505481
C     -3.816102    0.680577   -0.159443
Cl     4.718504   -4.694245   -2.256502
N     -1.539491    1.105155    0.523066
O      0.396569    1.718841    1.633092
O     -2.079593    3.711401    0.715821
O     -2.487497    2.327233    2.724852
S     -2.503195    2.354388    1.225329
H     -6.356003    0.339935    0.445607
H     -6.260367   -1.178122    1.364667
H     -6.161154   -1.283662   -0.409410
H     -3.801518   -1.889890    2.158369
H     -2.911669   -0.287451    2.070343
H     -4.598376   -0.383213    2.632363
H      7.868102    2.087120    0.791437
H      7.066676    0.987600   -1.313582
H      6.159798    2.813793    2.426418
H      4.723592    0.652724   -1.732706
H      3.735973    2.455528    1.973912
H      2.067812   -0.631762   -2.181713
H      3.652973   -1.902658    1.553360
H      3.086042   -2.519662   -3.271237
H      4.720099   -3.876211    0.416900
H     -3.355392   -1.032061   -2.584526
H     -5.065521   -1.477882   -2.117579
H     -3.879838    1.131592   -2.233029
H     -5.536556    0.709107   -1.526345
H      2.087006    2.172011    0.275815
H      2.485949    1.286245   -1.228514
H      0.556295   -0.144427   -0.924230
H      0.385931   -1.092702    0.621741
H     -1.922905   -1.477067    0.749895
H     -1.576862   -1.525149   -1.000048
H     -4.766026    1.715994    1.420198
H     -4.547832    2.746175   -0.008615
H      2.365962   -0.020296    1.538706
H     -3.937099   -2.581247   -0.309407
H     -2.094098    0.651352   -1.397177
