36

C     -0.638345    3.013292   -0.870395
C      2.768978   -0.698800    1.431002
C     -2.619351   -1.400950    0.233599
C     -0.960487   -1.077958   -1.617719
C      0.522837   -0.969254   -1.572436
C     -0.625971   -0.106863    1.834728
C     -0.444124    1.605455   -0.456570
C      2.254198   -0.645810    0.049339
C     -1.685715    0.857179    1.421223
C     -0.198666   -0.887465    0.662985
C     -1.628903    0.807430   -0.088075
C      0.761609    1.107020   -0.427510
C      2.936500    0.478832   -0.656286
C     -1.408579   -0.680063   -0.263836
C      0.864185   -0.351398   -0.200558
O     -2.384810    1.491861    2.154512
O      4.056614    0.428871   -1.210025
O      2.052301    1.570865   -0.554817
H     -1.646990    3.186184   -1.315215
H     -0.494171    3.651205    0.032752
H      0.168248    3.273269   -1.576213
H      3.896765   -0.724303    1.378760
H      2.483780   -1.645266    1.935602
H      2.514939    0.127664    2.084821
H     -2.991943   -2.072863   -0.576098
H     -3.451438   -0.689735    0.498272
H     -2.411175   -1.988502    1.152122
H     -1.220008   -2.161526   -1.766764
H     -1.395796   -0.477072   -2.443938
H      0.877829   -0.348394   -2.393365
H      1.027150   -1.956100   -1.653601
H     -1.106987   -0.806652    2.577735
H      0.138311    0.459835    2.366034
H      2.561224   -1.597007   -0.461380
H     -0.035816   -1.956703    0.845534
H     -2.536192    1.183720   -0.554219
