31

C      5.079265    0.491386    0.425999
C      3.985942    1.183955    0.892338
C      4.880791   -0.576845   -0.420619
C      2.717957    0.839135    0.537720
C      3.585663   -0.916830   -0.773295
C     -2.862512   -0.085078    1.153917
C     -4.352491    0.194859    1.186408
C     -0.057668    0.140614   -0.194615
C      2.488612   -0.234954   -0.315551
C      1.120037   -0.609749   -0.700345
C     -1.298241   -0.479911   -0.762477
C     -2.557504    0.205769   -0.312693
C     -4.775978   -0.368476   -0.121053
O      0.990543   -1.588758   -1.472716
O     -1.231147   -0.330776   -2.158302
O     -5.936263   -0.748250   -0.453198
O     -3.658555   -0.412523   -0.945698
H      6.084535    0.762705    0.705548
H      4.142819    2.015274    1.551371
H      5.730438   -1.126713   -0.792117
H      1.817056    1.362061    0.884736
H      3.408172   -1.762664   -1.445022
H     -2.286655    0.545361    1.837779
H     -2.752270   -1.180043    1.355219
H     -4.850783   -0.300109    2.042384
H     -4.538212    1.289028    1.161888
H      0.064076    1.187879   -0.546383
H     -0.041528    0.125587    0.916094
H     -1.338485   -1.547363   -0.476572
H     -2.518917    1.287511   -0.434023
H     -1.038697    0.637917   -2.326724
