62

C      5.544422    1.527115    0.082214
C      3.207907    2.202299   -0.165818
C     -6.985741   -1.810656    1.147074
C     -6.190692   -2.848908    0.712235
C     -6.362283   -0.669228    1.598569
C     -4.814246   -2.745357    0.729718
C     -4.965323   -0.565718    1.615763
C     -2.326763    1.435567    0.508653
C     -3.415754    0.609003   -1.421053
C     -2.823191    2.684771    0.250838
C     -3.921593    1.863100   -1.690941
C      4.709299   -0.709820    1.509951
C      4.885487   -1.105487    0.050943
C     -2.699942   -1.504169    1.202343
C     -0.593035   -0.962629    0.133015
C      2.375844   -0.053770    1.144592
C      4.011136   -0.126430   -2.099935
C     -4.173931   -1.602142    1.181562
C     -2.617546    0.382480   -0.324965
C     -2.107066   -0.979794   -0.088735
C      3.768701    0.446554    1.485834
C     -3.613932    2.910824   -0.834354
C      2.544432   -0.670352   -0.231728
C      0.117548   -0.466957   -1.061790
C      4.112817    1.062724    0.117405
C      3.868766   -0.192987   -0.662027
Cl    -4.250180    4.522248   -1.160796
N      1.517615   -0.371683   -1.164970
O     -0.595511   -0.117169   -2.033945
O      2.038493    1.537906   -2.993885
O      1.964708   -0.772156   -3.757376
S      2.312030    0.140423   -2.610570
H      5.805814    1.691241   -0.989542
H      5.595113    2.501902    0.599857
H      6.277068    0.836857    0.487516
H      2.147870    1.923154   -0.302600
H      3.577745    2.871286   -0.968667
H      3.205947    2.856216    0.757856
H     -8.072941   -1.889104    1.134686
H     -6.703110   -3.740305    0.360078
H     -6.989493    0.147056    1.940444
H     -4.194713   -3.561843    0.387901
H     -4.540974    0.363590    1.988686
H     -1.699237    1.260142    1.371348
H     -3.687958   -0.178306   -2.125541
H     -2.581875    3.519418    0.927564
H     -4.559177    2.061926   -2.559541
H      4.340791   -1.564851    2.116453
H      5.677916   -0.393272    1.981693
H      5.895983   -0.984631   -0.328351
H      4.511850   -2.137174   -0.051405
H     -2.223774   -2.500253    1.389663
H     -2.356194   -0.831296    2.011439
H     -0.310348   -2.030876    0.292401
H     -0.398094   -0.432394    1.061909
H      1.621784    0.722343    1.215244
H      2.146523   -0.875338    1.849470
H      4.665742    0.702351   -2.455711
H      4.327534   -1.104981   -2.536190
H     -2.360872   -1.622338   -0.949100
H      3.818865    1.143987    2.295042
H      2.539737   -1.804110   -0.135065
