41

C      5.960168    1.009307   -0.901743
C     -5.665232    2.222244    0.267799
C      4.629635    1.169121   -1.214093
C      6.334326    0.021459   -0.007513
C     -5.768717    1.060030   -0.473798
C     -4.438893    2.557038    0.797752
C      3.668083    0.336587   -0.629045
C      5.364176   -0.784343    0.553617
C     -4.678599    0.279345   -0.665236
C     -3.310886    1.755733    0.603539
C     -0.212654    0.662041    0.801837
C      2.975706   -1.502316    0.857780
C      4.025857   -0.646986    0.259526
C     -3.416204    0.596987   -0.136117
C     -0.973063   -0.356042    0.042740
C      1.207514    0.189462    1.066220
C     -2.333255   -0.335014   -0.430743
C     -1.942020   -1.164090    0.830315
C     -2.022955   -2.614689    0.698130
O      1.956193    0.960121    1.700969
O     -2.405199   -3.325243    1.652181
O     -1.675806   -3.224242   -0.490872
O      1.683933   -1.022251    0.643324
H      6.730223    1.641791   -1.340987
H     -6.527987    2.853959    0.427938
H      4.368699    1.945916   -1.912879
H      7.383071   -0.091782    0.227745
H     -6.749580    0.803573   -0.890828
H     -4.282604    3.449123    1.387280
H      2.651942    0.497691   -0.904488
H      5.668472   -1.551559    1.249933
H     -4.834697   -0.628823   -1.263683
H     -2.362966    2.023394    1.012989
H     -0.626032    0.765329    1.847880
H     -0.129654    1.656409    0.375203
H      3.051476   -2.500738    0.348430
H      3.187980   -1.716668    1.933564
H     -0.270414   -1.025117   -0.567659
H     -2.567787   -1.014383   -1.328011
H     -2.238521   -0.757746    1.816484
H     -1.413730   -4.194629   -0.579379
