86

C      2.118811   -0.944192    1.165333
C     -2.446585   -1.488962   -2.352729
C      6.365442    1.230823   -0.223794
C     -6.058241    0.400294    2.088322
C      5.519507    2.314508   -0.330916
C      5.818519   -0.036852   -0.278098
C     -5.391619    1.482217    1.564104
C     -5.604579   -0.837987    1.767291
C      4.163159    2.167404   -0.488345
C      4.434041   -0.168494   -0.438944
C     -4.301312    1.312684    0.741813
C     -4.497768   -1.016143    0.932639
C      1.707886   -0.674380   -0.248340
C     -2.139679   -1.256913   -0.844035
C      3.607683    0.907019   -0.543693
C     -3.818766    0.043544    0.399502
C      2.166360    0.717974   -0.712776
C     -0.682126   -1.373589   -0.748699
C      0.126789    0.873854    0.210829
N      0.251226   -0.436458   -0.291361
O     -0.234332   -2.521904   -1.156236
O     -0.919046    1.363949    0.704284
O     -2.730523   -0.099769   -0.421857
O      1.360150    1.548888    0.073405
C      1.633486   -2.009904    0.393397
C     -2.924230    0.484080   -2.314398
C      6.416000   -0.687635   -0.544836
C     -5.424516    1.523948    2.877461
C      5.926806    0.563440   -0.241223
C      5.505336   -1.652352   -0.918796
C     -5.558901    0.462956    2.035240
C     -4.327651    2.356917    2.757617
C      4.565815    0.830397   -0.312903
C      4.137034   -1.377537   -0.989042
C     -4.586016    0.226435    1.057499
C     -3.369853    2.112435    1.784685
C      1.379701   -1.121364   -0.795367
C     -2.428048   -0.148187   -0.977027
C      3.654687   -0.134000   -0.686862
C     -3.494762    1.040995    0.925746
C      2.216641    0.134028   -0.767671
C     -1.135441   -0.785204   -1.207904
C      0.371081    0.425668    0.485402
N      0.044228   -0.483225   -0.544865
O     -1.156182   -1.698966   -2.121734
O     -0.396034    0.790164    1.408653
O     -2.541308    0.825529   -0.017693
O      1.705904    0.854336    0.303884
H      2.912710   -0.242716    1.493645
H      2.548881   -1.982556    1.217970
H      1.228565   -0.858341    1.837670
H     -2.175014   -0.587570   -2.913839
H     -1.790599   -2.317229   -2.691959
H     -3.486912   -1.802619   -2.485137
H      7.436014    1.330349   -0.099400
H     -6.906226    0.585563    2.726911
H      5.951608    3.290149   -0.287824
H      6.456070   -0.905962   -0.196966
H     -5.707234    2.483127    1.784905
H     -6.125450   -1.693518    2.177077
H      3.482670    3.016567   -0.574345
H      4.031820   -1.166210   -0.478899
H     -3.755302    2.148729    0.313348
H     -4.196290   -2.031146    0.721672
H      2.022597   -1.422791   -0.971631
H     -2.582490   -2.176783   -0.374446
H      1.839585    0.825441   -1.766452
H      1.688980   -3.064519    0.012789
H      2.597017   -1.791093    0.897031
H      0.785321   -1.990102    1.095005
H     -3.289612   -0.322614   -2.959030
H     -3.678130    1.239963   -2.087774
H     -2.030712    0.946612   -2.782707
H      7.490682   -0.877975   -0.482495
H     -6.181845    1.718986    3.648845
H      6.655669    1.321355    0.054244
H      5.908599   -2.634541   -1.154658
H     -6.406899   -0.197259    2.113287
H     -4.255245    3.189279    3.443493
H      4.199741    1.821775   -0.069728
H      3.498439   -2.189254   -1.290567
H     -4.766207   -0.632970    0.430468
H     -2.540661    2.802951    1.748393
H      1.381037   -1.640858   -1.751756
H     -3.226443   -0.923554   -0.790065
H      1.956491    0.690864   -1.712429
