42

C     -3.725749   -2.169816    0.604028
C      0.490921    0.497113   -0.881185
C      4.735514    1.769747    0.786951
C      5.123209    0.718290   -0.017016
C      3.467529    1.824474    1.282048
C      4.216434   -0.278253   -0.316161
C      2.575961    0.821106    0.973086
C     -2.984515    0.462553   -0.910314
C     -2.251176    0.846374    1.287816
C     -3.153902    1.819857   -1.113124
C     -2.399847    2.221514    1.148577
C     -2.348624   -1.488127    0.524093
C      0.541191   -0.738725   -0.042855
C     -2.531981   -0.042471    0.289682
C      2.928673   -0.243144    0.173738
C     -2.857916    2.689162   -0.075280
C      1.964457   -1.294281   -0.137842
C     -1.526667   -2.142634   -0.498257
C      0.738807   -2.302813   -1.694120
Cl    -3.071521    4.425307   -0.325857
N     -0.191033   -1.776837   -0.743232
O     -2.037980   -3.070862   -1.185434
O      0.416636   -3.200131   -2.522993
O      1.973178   -1.666732   -1.524801
H     -4.386645   -1.468836    1.161497
H     -3.609889   -3.112038    1.192214
H     -4.042858   -2.342819   -0.433577
H      1.509428    0.819999   -1.248028
H      0.052396    1.375314   -0.390444
H     -0.090651    0.344211   -1.837654
H      5.419438    2.574560    1.046106
H      6.139997    0.734217   -0.376300
H      3.181373    2.671713    1.920336
H      4.555913   -1.092402   -0.952949
H      1.582156    0.925959    1.400682
H     -3.200432   -0.261248   -1.686306
H     -1.890069    0.498071    2.256897
H     -3.510372    2.187900   -2.064652
H     -2.176340    2.913280    1.939742
H     -1.934786   -1.615061    1.555963
H      0.229565   -0.609688    1.001107
H      2.080176   -2.223801    0.433821
