51

C     -2.601685   -1.921300   -1.366162
C      2.888523   -2.680784    0.101627
C      1.992660   -1.380609    2.047663
C     -5.064218    2.129513   -0.827611
C     -1.285922   -1.168649   -1.485162
C      4.640341    2.133769   -1.134979
C      4.844383    1.111189   -0.235209
C      3.391268    2.210030   -1.737896
C      3.823605    0.196664    0.046829
C      2.402759    1.295256   -1.441512
C     -3.955652    1.959444    1.422690
C     -2.962122    1.464828    2.241333
C     -3.021726    0.746563   -0.389040
C      1.764704   -1.796809    0.614857
C     -3.997691    1.600130    0.076270
C      2.598611    0.267758   -0.541741
C     -2.027720    0.247983    0.416641
C     -0.945400   -0.673186   -0.092039
C     -2.011902    0.622280    1.748801
C      1.482577   -0.662773   -0.305787
N      0.283690   -0.000071   -0.006612
O     -1.009540    0.120474    2.566330
Cl     0.687916    0.000000    0.000000
H     -2.377998   -3.027354   -1.336757
H     -3.137330   -1.702904   -0.419564
H     -3.223123   -1.754350   -2.270583
H      3.628888   -2.911697    0.895422
H      3.369195   -2.235768   -0.791128
H      2.464673   -3.659725   -0.277404
H      1.182258   -1.756385    2.740908
H      2.907986   -1.912253    2.397549
H      2.033725   -0.297589    2.198099
H     -5.667872    1.305479   -1.264716
H     -4.583219    2.747196   -1.624609
H     -5.763414    2.742032   -0.222671
H     -1.355357   -0.332802   -2.210747
H     -0.508326   -1.886815   -1.778422
H      5.422555    2.853856   -1.366607
H      5.809546    1.044366    0.236095
H      3.245093    3.030612   -2.452963
H      4.045333   -0.576218    0.764722
H      1.457220    1.437387   -1.964808
H     -4.722092    2.627346    1.780941
H     -2.910804    1.731486    3.291929
H     -3.059204    0.477398   -1.431690
H      0.854169   -2.457350    0.640627
H     -0.942506   -1.561972    0.564605
H      1.319139   -1.154686   -1.331150
H      0.270058    1.026873   -0.020589
H     -0.988137    0.382137    3.534221
H     -0.687916    0.000000    0.000000
