45

C      6.890324   -0.992202    0.743826
C      1.143756    1.875934    1.405186
C     -1.836876   -1.488863   -0.276928
C     -6.225561   -1.322938    0.928299
C     -5.163487   -0.764935    1.608303
C     -6.209460   -1.259370   -0.446706
C     -4.104106   -0.155291    0.952985
C     -5.146713   -0.647359   -1.114930
C      4.454790   -0.905897    1.260229
C      5.335362    0.671514   -0.263803
C      3.208141   -0.323632    1.077220
C      4.107937    1.239546   -0.439613
C      5.522596   -0.401180    0.582764
C      1.654353    1.358839    0.053833
C     -1.702871   -0.251153   -1.129495
C      2.991888    0.744195    0.241705
C     -4.085590   -0.090294   -0.424583
C     -2.974799    0.551249   -1.174632
C      0.684204    0.338875   -0.405106
C     -1.262733    1.913016   -0.574269
N     -0.670942    0.629532   -0.687308
O      1.089740   -0.842320   -0.549630
O     -0.713211    3.038336   -0.499552
O     -2.658814    1.784074   -0.552576
H      6.914800   -2.052600    0.408924
H      7.629777   -0.367012    0.199485
H      7.127158   -0.992062    1.820411
H      0.122584    1.499310    1.615031
H      1.210386    2.985887    1.460639
H      1.792349    1.426335    2.211171
H     -1.049881   -2.216302   -0.629275
H     -2.805370   -1.963164   -0.502122
H     -1.638980   -1.319155    0.785108
H     -7.059620   -1.803054    1.447300
H     -5.184239   -0.819309    2.688585
H     -7.039658   -1.695317   -0.983226
H     -3.270108    0.281758    1.516360
H     -5.187448   -0.627260   -2.183504
H      4.615074   -1.747034    1.920774
H      6.175975    1.083543   -0.809369
H      2.375570   -0.751221    1.633793
H      3.913466    2.083269   -1.094049
H      1.755438    2.196536   -0.667555
H     -1.441359   -0.599678   -2.154782
H     -3.283844    0.696855   -2.223207
