51

C      0.257322   -1.994970   -2.753356
C     -2.332156   -1.411446    1.569047
C     -3.518496   -1.642902   -0.587866
C      5.599026    0.775375   -0.887406
C      1.297878   -1.307642   -1.927932
C     -3.561482    3.295986    0.251211
C     -3.785624    2.606688   -0.918705
C     -2.634389    2.782907    1.167322
C     -3.093012    1.426193   -1.163873
C     -1.953854    1.600263    0.899867
C      4.408107    0.831353    1.277499
C      3.309581    0.568934    2.031725
C      3.302295   -0.107405   -0.630733
C     -2.162795   -1.529470    0.074594
C      4.407318    0.496546   -0.045134
C     -2.182055    0.917938   -0.268488
C      2.186194   -0.380866    0.108710
C      0.947436   -1.043460   -0.495536
C      2.212943   -0.031269    1.447436
C     -1.431749   -0.372165   -0.547598
N     -0.106989   -0.166510   -0.221378
O      1.124167   -0.278229    2.247910
Cl     0.687973    0.000000    0.000000
H      0.726853   -2.764254   -3.442153
H     -0.284800   -1.281773   -3.419506
H     -0.446553   -2.520869   -2.092165
H     -1.460826   -1.082576    2.119147
H     -3.175127   -0.682687    1.751216
H     -2.675457   -2.361575    2.024074
H     -3.472137   -1.428198   -1.675639
H     -4.195801   -0.879195   -0.132993
H     -3.928653   -2.667775   -0.477363
H      5.223375    1.193876   -1.864940
H      6.221392    1.600126   -0.451593
H      6.193059   -0.150860   -1.045094
H      2.222924   -1.965698   -1.984423
H      1.518822   -0.321449   -2.443954
H     -4.093441    4.219550    0.459333
H     -4.500352    2.996733   -1.631349
H     -2.488054    3.354719    2.073169
H     -3.307856    0.927081   -2.097241
H     -1.254007    1.259016    1.644903
H      5.279705    1.304481    1.725650
H      3.309097    0.836974    3.092315
H      3.345835   -0.354576   -1.678572
H     -1.627653   -2.478861   -0.096746
H      0.851856   -2.051672   -0.015790
H     -1.556922   -0.517179   -1.663196
H      0.177534    0.819364   -0.409109
H      1.107522   -0.038570    3.223457
H     -0.687973    0.000000    0.000000
