39

C     -1.158228    2.793626   -0.575342
C      1.984262   -0.051559    2.305956
C     -2.508457   -1.852982   -0.405215
C     -0.386598   -1.445267   -1.680192
C      0.970499   -0.916212   -1.272788
C     -1.255498    0.029588    1.515553
C     -0.631353    1.411732   -0.987988
C      2.019803   -0.589463    0.898363
C     -2.265462    0.689403    0.623659
C     -0.465949   -0.904518    0.657567
C     -1.764923    0.439461   -0.758654
C      0.536464    1.142367   -0.099835
C      3.176966    0.048560    0.184037
C     -1.305592   -0.984663   -0.620381
C      0.799658   -0.317733    0.110706
O     -3.261200    1.291153    0.898392
O      1.203864    2.022973    0.400027
O      3.926011    0.884287    0.773958
O      3.492193   -0.230116   -1.136947
H     -0.337000    3.547618   -0.605678
H     -1.474885    2.750641    0.498143
H     -1.969966    3.111064   -1.246554
H      1.135296   -0.437988    2.876658
H      2.903902   -0.468420    2.814155
H      2.110924    1.031194    2.308916
H     -3.470421   -1.268892   -0.475620
H     -2.513533   -2.653572   -1.159613
H     -2.492150   -2.240736    0.643048
H     -0.667544   -1.135234   -2.703338
H     -0.331939   -2.551280   -1.662521
H      1.309147   -0.179513   -2.024296
H      1.733490   -1.746552   -1.254594
H     -1.810646   -0.536462    2.280230
H     -0.660014    0.857129    1.953500
H     -0.333848    1.467196   -2.052143
H      2.209559   -1.658351    0.938618
H     -0.336927   -1.892133    1.116766
H     -2.512224    0.597484   -1.532739
H      4.402316   -0.053833   -1.543813
