65

C     -4.857212    1.302015    1.505859
C     -4.256865    1.909077   -0.782746
C      9.013513   -0.611552    0.317402
C     -2.898001   -3.309743   -0.927594
C     -0.183248    3.047709    2.734974
C     -0.281007    1.786253    3.270503
C     -0.021938    3.185979    1.365922
C     -0.226629    0.630995    2.508636
C      0.032676    2.029460    0.601626
C      6.645458   -0.905246    1.053790
C      7.060927    0.624594   -0.669629
C     -4.862292   -1.904134   -1.421301
C      5.295365   -0.648814    1.016460
C      5.709763    0.889958   -0.716376
C     -4.888400   -0.928197   -0.318401
C      0.915702   -0.411746   -1.371721
C      2.404906   -0.558791   -1.197247
C     -2.682712   -1.081707   -2.068245
C     -3.785677    1.159070    0.419265
C      7.564469   -0.291446    0.229004
C     -3.504031   -2.338788   -1.882942
C     -0.065718    0.769651    1.142928
C      4.813891    0.275049    0.105465
C     -3.626446   -0.344841    0.141554
C     -2.419252   -0.528289   -0.691658
O      0.814535   -1.726350    0.970081
O      3.009895    1.961978   -0.698572
O     -1.497594   -1.401981   -0.093852
P      0.006218   -0.721337    0.142517
S      3.040738    0.610301    0.049885
H     -5.581974    0.480849    1.330303
H     -4.346884    1.219833    2.481024
H     -5.344090    2.279588    1.416111
H     -5.130742    2.566684   -0.537550
H     -4.493202    1.304383   -1.656863
H     -3.459011    2.636008   -1.114891
H      9.491696   -0.333687   -0.636709
H      9.435857    0.001059    1.142389
H      9.188716   -1.671727    0.583465
H     -3.167077   -3.028635    0.103414
H     -3.405561   -4.302746   -1.104124
H     -1.830486   -3.491267   -1.087418
H     -0.228507    3.928440    3.349017
H     -0.405951    1.704703    4.337634
H      0.054831    4.169593    0.943676
H     -0.309048   -0.337744    2.984018
H      0.157444    2.151797   -0.453589
H      7.044026   -1.632280    1.767259
H      7.750462    1.124749   -1.331281
H     -5.423439   -2.853378   -1.171346
H     -5.398521   -1.530193   -2.343777
H      4.587106   -1.144983    1.677015
H      5.332663    1.624446   -1.441659
H     -5.460902   -1.395338    0.540076
H     -5.575095   -0.082807   -0.629574
H      0.623941   -1.042950   -2.219280
H      0.747891    0.652154   -1.710265
H      2.944358   -0.518469   -2.129826
H      2.582199   -1.572832   -0.750805
H     -1.731741   -1.355527   -2.539226
H     -3.215486   -0.410659   -2.738271
H     -2.824924    1.565364    0.762899
H     -3.630377   -2.832956   -2.875795
H     -3.392495   -0.771622    1.164643
H     -1.856710    0.431025   -0.846281
