128

C      4.045313   -0.160004   -1.204928
C     -3.175644    2.051037    0.359057
C      1.199096    0.805070   -1.009073
C      4.149461    0.920654    1.084338
C     -3.123621   -1.105087   -1.715136
C     -1.977294   -1.760133   -1.022688
C      2.313167   -2.181734   -0.022563
C      1.018939   -2.130376   -0.851525
C      5.608693    1.252257    1.122300
C     -5.019901   -1.052783    0.683225
C     -4.085901   -0.019602    1.232898
C     -5.005454    0.387256   -1.400405
C     -0.867226    1.165697    1.146008
C      3.740611   -0.249947    0.264210
C     -3.504048    0.234503   -1.201672
C     -5.671722   -0.634500   -0.578379
C     -1.029418   -0.651550   -0.587232
C      2.384401   -0.779834    0.584301
C      0.210979   -1.210691   -0.040911
C     -1.751602    0.054546    0.565385
C      0.498165    0.653745    1.361155
C      6.238683    1.578246   -0.167401
C     -3.114051    0.520871    0.211479
C      1.185173   -0.037791    0.226308
O     -6.744391   -1.161200   -0.882809
O      1.117475    0.746878    2.391860
O      6.951267    0.810305   -0.851154
O      6.036993    2.858817   -0.698609
C      3.773320    1.841693   -0.374212
C     -3.603624    2.113532   -0.396281
C      1.156907    0.032660   -1.636244
C      4.698064    0.052193    0.985204
C     -3.175617   -1.617952   -1.044557
C     -2.046859   -1.829696   -0.035215
C      2.319067   -1.477947    0.857209
C      0.939703   -1.975696    0.404713
C      6.095648    0.288795    0.544994
C     -5.149069   -0.628915    1.020781
C     -4.053491    0.355631    1.219892
C     -5.057382   -0.152537   -1.509661
C     -0.994680    1.787402   -0.186043
C      3.647976    0.404008   -0.043532
C     -3.565127   -0.185347   -1.187001
C     -5.771329   -0.611229   -0.308210
C     -1.132790   -0.640181   -0.201746
C      2.334937    0.007021    0.574490
C      0.156223   -0.748682    0.483394
C     -1.805135    0.614133    0.327384
C      0.427819    1.571005    0.175194
C      6.471763   -0.508795   -0.607313
C     -3.247857    0.672471    0.000421
C      1.106095    0.290430   -0.154619
O     -6.920735   -0.989858   -0.422211
O      1.040410    2.436738    0.740796
O      5.714975   -1.358641   -1.106545
O      7.724475   -0.348664   -1.211853
H      3.201392   -0.539122   -1.832219
H      4.322919    0.870069   -1.495119
H      4.907759   -0.814810   -1.527265
H     -2.861397    2.383233    1.345367
H     -2.685911    2.531888   -0.484883
H     -4.270718    2.294067    0.271493
H      2.059653    1.452349   -1.141175
H      0.331758    1.528092   -0.881382
H      0.977270    0.284601   -1.944992
H      3.654218    1.844544    0.650820
H      3.815842    0.775713    2.139171
H     -2.822186   -0.976439   -2.797995
H     -4.010697   -1.801043   -1.778247
H     -2.233422   -2.337554   -0.135064
H     -1.385234   -2.374110   -1.761642
H      2.123136   -2.944001    0.758810
H      3.176922   -2.424947   -0.634816
H      0.524259   -3.145722   -0.823336
H      1.208064   -1.863295   -1.886116
H      5.838175    2.027258    1.893991
H      6.143448    0.315531    1.482484
H     -4.536256   -2.028294    0.640872
H     -5.855356   -1.158650    1.439414
H     -4.705540    0.764476    1.713689
H     -3.537342   -0.508865    2.087565
H     -5.360241    1.404332   -1.262475
H     -5.204535    0.110300   -2.478108
H     -1.292568    1.359647    2.174907
H     -0.940349    2.101335    0.594672
H      4.430097   -1.096134    0.628492
H     -3.040958    1.046530   -1.835956
H     -0.970250    0.059244   -1.404547
H      2.375034   -0.924888    1.709374
H     -0.012165   -1.697272    0.932959
H     -1.779374   -0.724593    1.384862
H      6.786414    3.301880   -1.243866
H      4.757578    1.970396   -0.916323
H      3.030021    2.245624   -1.083654
H      3.820431    2.511897    0.499761
H     -4.721662    2.113550   -0.503369
H     -3.406830    2.815665    0.450542
H     -3.146336    2.409759   -1.338385
H      0.920227   -1.020179   -1.908759
H      2.176725    0.220559   -2.027632
H      0.392559    0.643755   -2.189448
H      4.534197   -0.992609    1.367960
H      4.497290    0.757723    1.849819
H     -4.012429   -2.309769   -0.874506
H     -2.727740   -1.931612   -2.034181
H     -2.409811   -1.975457    0.979633
H     -1.469582   -2.732992   -0.328739
H      2.476163   -1.708757    1.930502
H      3.121288   -2.014604    0.310491
H      0.579199   -2.709379    1.184156
H      0.970361   -2.520248   -0.532878
H      6.790202    0.132295    1.418936
H      6.192496    1.400633    0.351510
H     -5.966382   -0.420991    1.773370
H     -4.807018   -1.670361    1.297513
H     -3.384854   -0.053131    2.034312
H     -4.496504    1.282130    1.691398
H     -5.387788    0.803757   -1.915320
H     -5.181853   -0.903531   -2.344612
H     -1.047810    1.824747   -1.293691
H     -1.386305    2.726988    0.197156
H      3.792348   -0.246617   -0.919177
H     -3.072184    0.306514   -2.075163
H     -1.062114   -0.475083   -1.317020
H      2.264710    0.501737    1.589085
H      0.073110   -0.427402    1.543071
H     -1.658276    0.612326    1.441748
H      7.872888   -0.560905   -2.188604
