39

C     -2.085871    1.413905    1.983114
C      2.884301    0.786479    1.175609
C     -1.801420   -1.602242   -1.827892
C     -0.273175   -2.091088    0.105562
C      1.107061   -1.457599    0.328398
C     -0.976903    1.188049   -1.182032
C     -1.402662    0.112534    1.550979
C      1.960314    0.897721   -0.008364
C     -2.296389    0.886487   -0.551250
C     -0.131116   -0.021979   -1.030451
C     -2.059910   -0.336181    0.267745
C      0.031707    0.420146    1.392581
C      2.722860    0.691618   -1.240906
C     -1.110765   -1.109967   -0.612804
C      0.780206    0.011140    0.177362
O     -3.349429    1.462114   -0.643789
O      0.582408    1.024256    2.298221
O      2.735668    1.616698   -2.121667
O      3.423937   -0.494991   -1.450601
H     -1.558685    2.266096    1.465784
H     -1.915162    1.605229    3.071170
H     -3.133034    1.454672    1.685596
H      2.607381   -0.054222    1.850098
H      2.957467    1.714461    1.759273
H      3.928128    0.553781    0.837468
H     -2.443158   -0.786718   -2.222608
H     -1.028260   -1.788272   -2.620104
H     -2.454765   -2.473096   -1.678789
H     -0.101969   -2.975726   -0.543379
H     -0.700136   -2.464199    1.058702
H      1.409595   -1.701231    1.383687
H      1.829621   -1.819819   -0.403551
H     -1.163463    1.361946   -2.268613
H     -0.526375    2.112404   -0.767768
H     -1.610046   -0.611916    2.369144
H      1.566333    1.951672    0.019665
H      0.441412   -0.307901   -1.919742
H     -2.973730   -0.881055    0.510987
H      4.128022   -0.553208   -2.196836
