66

C      2.461911    1.173956    1.301717
C      4.435982    1.160746   -0.235650
C     -3.755203   -1.890431   -0.313424
C      0.326221   -0.820521    0.589680
C      0.251648    0.035113   -1.606271
C     -1.060612   -0.839366    0.628945
C     -1.126658    0.014557   -1.562531
C      2.487050   -0.348368   -0.606269
C      2.933148    1.018638   -0.110911
C     -3.313271   -0.445948   -0.393020
C      1.004614   -0.383634   -0.526849
C     -1.821989   -0.422142   -0.446527
C     -3.823315    0.370228    0.700460
O     -4.579820    1.338201    0.471447
O     -3.479946    0.088145    2.005090
C     -3.241750    0.069718    1.320164
C     -3.368184   -1.285776   -0.784194
C      4.003319    0.893115    0.021180
C     -0.289227    1.210560    0.514610
C     -0.332153   -0.121690   -1.412879
C      1.030304    0.873058    0.708631
C      0.988806   -0.467264   -1.229670
C     -2.410011    1.036101   -0.822543
C     -3.384240    0.080947   -0.174795
C      3.114060   -0.342416    0.038844
C     -1.007884    0.721025   -0.554127
C      1.688496    0.022403   -0.170473
C      3.325079   -1.014765    1.335474
O      2.367861   -1.209105    2.094359
O      4.591169   -1.421889    1.691207
H      2.892004    2.118223    1.696067
H      2.720878    0.304838    1.938761
H      1.360349    1.300966    1.288774
H      4.641192    1.537917   -1.257681
H      4.938419    0.171265   -0.101536
H      4.763023    1.910449    0.505311
H     -4.834520   -1.904250   -0.575375
H     -3.562329   -2.313764    0.690579
H     -3.228029   -2.433977   -1.124396
H      0.884085   -1.156470    1.454114
H      0.788607    0.382209   -2.493387
H     -1.589034   -1.186966    1.515727
H     -1.711806    0.346165   -2.417239
H      2.893853   -1.155676    0.002694
H      2.803528   -0.530930   -1.652956
H      2.475538    1.833739   -0.706401
H     -3.660656   -0.079842   -1.402554
H     -3.514864    0.806928    2.743611
H     -2.229083   -0.206332    1.664057
H     -3.423037    1.104888    1.679169
H     -3.955833   -0.631989    1.754459
H     -2.721229   -2.000360   -0.240220
H     -4.390845   -1.764815   -0.784771
H     -3.100040   -1.189619   -1.854989
H      4.965134    0.590874    0.487453
H      3.539707    1.759958    0.496060
H      4.214301    1.114762   -1.054932
H     -0.762098    1.873465    1.220229
H     -0.824174   -0.550804   -2.278995
H      1.559233    1.274207    1.553648
H      1.479420   -1.125232   -1.919107
H     -2.569181    1.045752   -1.920368
H     -2.694169    2.061950   -0.466129
H     -4.409912    0.507316   -0.373976
H      3.434078   -1.016294   -0.760021
H      4.812084   -1.891749    2.570567
