128

C      3.477855    2.207321    0.013339
C     -3.334863    1.475149    0.688837
C      0.878720    0.514015    1.503013
C      4.833576    0.200493    0.443257
C     -3.201961   -2.167865   -0.351958
C     -1.770574   -2.136766   -0.787287
C      2.539648   -1.508020    0.218083
C      1.125435   -2.019250    0.297677
C      5.495890    0.237677   -0.918591
C     -5.430848    1.074817   -1.056546
C     -4.061928    0.686246   -1.502233
C     -5.158540   -1.025023    0.493021
C     -1.017974    1.558387   -0.513188
C      3.450835    0.786892    0.446412
C     -3.677008   -0.914890    0.326724
C     -5.924846    0.100771   -0.054883
C     -1.110382   -0.940246   -0.079604
C      2.460091   -0.056431   -0.306775
C      0.337840   -0.999847   -0.413712
C     -1.758967    0.263185   -0.710229
C      0.403225    1.314923   -0.799458
C      6.826072   -0.388686   -0.760143
C     -3.215849    0.357393   -0.308094
C      1.058872    0.289972    0.023962
O     -7.082757    0.264928    0.346090
O      0.980859    1.911379   -1.643639
O      6.880709   -1.538626   -0.271679
O      8.030893    0.241565   -1.130680
C      3.612148   -1.211980   -1.456204
C     -3.037083    0.367658   -1.944132
C      1.133122    0.363504   -1.245319
C      4.877427   -0.694934    0.549719
C     -3.289179    0.949172    1.742501
C     -1.795821    1.112249    1.908061
C      2.354218    0.074622    1.940358
C      1.202011    1.074683    1.685087
C      6.124142   -0.328884   -0.181770
C     -5.529983   -0.919755   -0.709533
C     -4.108727   -1.257511   -0.409341
C     -5.065875    1.461783    0.061284
C     -1.110015   -1.411305   -0.858862
C      3.592891   -0.408241   -0.179382
C     -3.631041    1.113148    0.297487
C     -5.914122    0.256551    0.092827
C     -1.051356    0.633439    0.638703
C      2.376058   -0.754300    0.648230
C      0.245489    0.128535    1.087283
C     -1.859955   -0.518135    0.088923
C      0.270900   -1.704661   -0.358247
C      6.289422    1.085106   -0.514965
C     -3.159281   -0.089967   -0.506065
C      1.083053   -0.516846   -0.031409
O     -6.911465    0.233721    0.767927
O      0.670190   -2.827689   -0.236662
O      5.437634    1.921008   -0.138882
O      7.365960    1.579773   -1.246388
H      4.345314    2.698763    0.565526
H      2.616037    2.821786    0.319839
H      3.616324    2.331851   -1.080305
H     -2.672623    1.295315    1.579776
H     -4.340607    1.626481    1.104141
H     -3.047261    2.410783    0.166662
H     -0.168894    0.466943    1.852542
H      1.461196   -0.267552    2.034782
H      1.224992    1.538092    1.742498
H      5.511679    0.721269    1.149089
H      4.848786   -0.869779    0.753674
H     -3.915695   -2.417061   -1.153467
H     -3.298606   -2.987996    0.403084
H     -1.211117   -3.060380   -0.681537
H     -1.751575   -1.853728   -1.881997
H      2.956335   -1.433065    1.253969
H      3.217791   -2.122747   -0.393848
H      1.022961   -3.043612   -0.124396
H      0.790575   -2.069531    1.368804
H      4.891719   -0.244026   -1.711297
H      5.653949    1.282507   -1.265688
H     -5.387809    2.099547   -0.614119
H     -6.114494    1.037204   -1.928685
H     -4.101886   -0.244527   -2.139856
H     -3.596703    1.468930   -2.131861
H     -5.468742   -1.143489    1.575710
H     -5.570639   -1.960095    0.008462
H     -1.077016    1.958408    0.513048
H     -1.415045    2.256487   -1.270445
H      3.141630    0.797897    1.533101
H     -3.236955   -0.928329    1.368380
H     -1.237321   -1.010549    1.005096
H      2.657230   -0.108532   -1.373141
H      0.516688   -1.073144   -1.504563
H     -1.748081    0.063098   -1.815864
H      8.853839    0.173318   -0.537811
H      2.839912   -1.970895   -1.544149
H      4.583734   -1.788204   -1.548271
H      3.666511   -0.514785   -2.344119
H     -2.179699    1.011794   -2.130806
H     -3.946732    0.954408   -2.224580
H     -3.061828   -0.544979   -2.573030
H      0.095497    0.760387   -1.417669
H      1.301133   -0.294326   -2.131387
H      1.778083    1.233953   -1.180239
H      4.876572   -0.310965    1.586295
H      4.956707   -1.822879    0.707784
H     -3.575607   -0.096258    2.036184
H     -3.838636    1.663448    2.371217
H     -1.503111    2.143364    2.139782
H     -1.483309    0.460387    2.746911
H      2.087575   -0.570345    2.804847
H      3.271102    0.596079    2.161976
H      0.889980    1.515098    2.648563
H      1.578267    1.823256    0.972576
H      6.301793   -0.899329   -1.122949
H      6.985017   -0.680178    0.480906
H     -5.730520   -0.770234   -1.790752
H     -6.147602   -1.799478   -0.402702
H     -4.068861   -1.633499    0.642839
H     -3.767959   -2.024322   -1.105701
H     -5.208636    2.032759   -0.878834
H     -5.369818    2.156725    0.878966
H     -1.690794   -2.352675   -0.946832
H     -0.995841   -0.997700   -1.868685
H      3.577930    0.664794   -0.441125
H     -3.032920    1.990426   -0.087249
H     -1.053452    1.533807   -0.006576
H      2.426996   -1.825766    0.946979
H      0.067060   -0.701387    1.810077
H     -2.092649   -1.164420    0.987932
H      7.293341    2.511195   -1.669411
