45

C     -4.536347    2.189554    0.017858
C      5.219663   -2.375347    0.734065
C     -2.826882   -1.908399    2.330034
C      5.790130   -1.577544   -0.247412
C      3.865511   -2.244975    0.960391
C     -2.538037   -0.725088    2.966755
C     -3.206710   -1.962230    1.008565
C      5.067894   -0.679837   -0.987303
C      3.127253   -1.335511    0.212548
C     -2.642541    0.442685    2.222015
C     -3.297644   -0.756658    0.299464
C     -0.122472    1.985186   -0.556798
C      1.061800    1.232118    0.007496
C     -0.827062   -0.124395   -1.633933
C      2.895913    0.397721   -1.527951
C     -3.110370    1.705843    0.165838
C      3.709706   -0.553102   -0.756104
C     -3.016827    0.437994    0.904238
C     -1.115263    1.063039   -1.127930
C      0.573802   -0.528687   -1.614759
N     -2.481623    1.523156   -1.115576
N      1.538211    0.357980   -1.062520
O      0.972919   -1.630869   -2.066617
H     -5.263285    1.507282    0.515131
H     -4.701441    3.194514    0.458510
H     -4.776637    2.307478   -1.076042
H      5.834415   -3.075954    1.297864
H     -2.747859   -2.837017    2.907879
H      6.863110   -1.640059   -0.469135
H      3.369525   -2.852847    1.724608
H     -2.239575   -0.683479    4.005380
H     -3.427828   -2.908021    0.533996
H      5.509674   -0.050212   -1.759624
H      2.052937   -1.268335    0.429105
H     -2.406965    1.361690    2.756150
H     -3.599264   -0.829203   -0.740332
H      0.282182    2.601808   -1.409757
H     -0.552764    2.628626    0.237630
H      1.855538    1.930482    0.335951
H      0.665782    0.628889    0.848800
H     -1.585484   -0.772914   -2.044881
H      3.008876    0.179117   -2.605306
H      3.280764    1.431518   -1.379172
H     -2.573027    2.512882    0.738526
H     -2.949702    1.701120   -2.004942
