45

C      2.880340   -0.754307   -1.400458
C     -6.955795    0.078704    0.278957
C      6.822210    1.432915    0.752232
C     -5.834245    0.680205    0.801864
C     -6.850378   -0.939743   -0.629166
C      6.106052    0.440475    1.380319
C      6.240864    2.120122   -0.292545
C     -4.589098    0.243509    0.398863
C     -5.600884   -1.384492   -1.039391
C      4.818535    0.143007    0.961200
C      4.942984    1.804534   -0.698661
C     -0.062320   -1.152172    0.781595
C     -1.542533   -1.002927    0.954895
C     -0.096614    0.916639   -0.496346
C     -3.152298   -1.235297   -0.934234
C      2.833002    0.475708   -0.509284
C     -4.492497   -0.776739   -0.510759
C      4.214290    0.814846   -0.080535
C      0.550589    0.064032    0.257673
C     -1.483652    0.671430   -0.839470
N      1.942682    0.318751    0.601871
N     -2.092655   -0.528507   -0.313511
O     -2.157528    1.424110   -1.546974
H      3.848801   -0.690386   -1.964334
H      2.987832   -1.637542   -0.729214
H      2.008619   -0.816186   -2.061237
H     -7.937528    0.406012    0.581565
H      7.843066    1.662051    1.091555
H     -5.937386    1.481797    1.516849
H     -7.711140   -1.439665   -1.064579
H      6.512792   -0.119813    2.194071
H      6.821962    2.897096   -0.772710
H     -3.739457    0.741179    0.832347
H     -5.509276   -2.192463   -1.759951
H      4.235983   -0.640309    1.447146
H      4.486152    2.331673   -1.506246
H      0.338778   -1.445343    1.784053
H      0.111527   -1.989400    0.060289
H     -1.961371   -2.000204    1.202943
H     -1.787778   -0.285736    1.778260
H      0.431802    1.799792   -0.850670
H     -3.067576   -1.278474   -2.048704
H     -3.078805   -2.310334   -0.601321
H      2.410847    1.292179   -1.148904
H      2.251104    0.379271    1.591786
