264

C      2.853610   -3.598313    0.301677
C     -5.490067   -0.318355   -2.362471
C     -3.657885   -1.823106   -1.864071
C     -4.287121    1.371446    2.997823
C      2.029741   -3.177877    1.485725
C      7.682806    1.886479   -0.909587
C      6.755526    1.541183   -1.865495
C      7.347346    1.701728    0.415026
C      5.523133    1.024128   -1.505002
C      6.097335    1.177104    0.768279
C     -4.343731    2.259352    0.722542
C     -4.327443    1.733426   -0.655200
C      0.397632   -1.945605    0.077383
C     -2.677521    0.477825    1.401047
C     -4.003826   -0.357809   -1.997763
C     -3.483502    1.687565    1.756545
C      1.300515   -1.860937    1.274946
C      5.172746    0.833212   -0.188164
C     -3.858472    0.297412   -0.670297
C     -0.358838   -0.697955   -0.071253
C      2.120799   -0.665861    1.394268
C      0.238915    0.443036    0.188650
C      1.647429    0.535745    0.634285
C      3.553749   -0.748004    1.036990
C      2.631769    0.749721   -0.420390
C     -0.508091    1.680383   -0.003142
C     -2.486423    0.361374   -0.105735
N      3.867811    0.307634    0.120324
O      4.446449   -1.583277    1.429450
O      2.473637    1.217879   -1.569087
O      0.058570    2.779518    0.244353
O     -1.719155   -0.723551   -0.489040
O     -1.809855    1.588538   -0.450194
C      1.778367    4.178123   -0.045460
C     -4.552754   -2.853550   -0.364629
C     -4.674026   -2.789398    2.064291
C     -3.050870    2.692290   -0.878061
C      2.513406    2.936831   -0.515959
C      7.618993   -1.862685    1.272654
C      6.483351   -2.635884    1.347813
C      7.506941   -0.613797    0.706580
C      5.263833   -2.165172    0.865142
C      6.277715   -0.140583    0.220624
C     -4.536359    1.329308    0.478831
C     -4.840343   -0.102025    0.798986
C      0.734751    1.467140    0.423309
C     -3.160617    0.231111   -1.322966
C     -3.838682   -2.368784    0.873188
C     -3.932153    1.452830   -0.879259
C      1.534536    1.825903   -0.807819
C      5.148611   -0.905254    0.293447
C     -3.575329   -0.885010    0.877798
C     -0.210766    0.370168    0.054810
C      2.191330    0.670534   -1.470069
C      0.280188   -0.656390   -0.617656
C      1.702081   -0.667189   -0.962622
C      3.614529    0.614760   -1.131625
C      2.596831   -0.928551    0.163662
C     -0.629514   -1.729408   -0.984119
C     -2.529974   -0.486653   -0.139671
N      3.902103   -0.421491   -0.203100
O      4.491274    1.386639   -1.600528
O      2.331878   -1.489842    1.275113
O     -0.147600   -2.712292   -1.631008
O     -1.547283    0.369062    0.373166
O     -1.983273   -1.695625   -0.645869
C      2.703598   -3.506174    2.356035
C     -5.654173    1.846992   -1.613806
C     -3.626643    3.057702   -0.915697
C     -2.967124   -2.436240    1.150919
C      1.892847   -3.328365    1.126480
C      7.256424    2.238526   -1.967833
C      6.005532    2.632381   -2.391479
C      7.321818    1.289524   -0.953501
C      4.846256    2.113406   -1.839449
C      6.154950    0.788265   -0.420390
C     -4.792911   -0.929623    0.455065
C     -4.382434   -0.659005   -0.955296
C      0.583769   -1.816970   -0.381585
C     -2.612637    0.056666    1.169657
C     -4.412668    1.761013   -0.727126
C     -3.577060   -1.065278    1.317403
C      1.408375   -1.933465    0.886640
C      4.905940    1.177748   -0.839436
C     -3.550435    0.595733   -1.109509
C     -0.136366   -0.522414   -0.243771
C      2.431368   -0.869271    0.907475
C      0.404920    0.477656    0.408197
C      1.731618    0.465639    1.064572
C      3.210396   -0.686075   -0.305884
C      2.700178    1.404151    0.444838
C     -0.385614    1.699137    0.482260
C     -2.354324    0.525981   -0.219782
N      3.694648    0.652055   -0.279370
O      3.479516   -1.467182   -1.262613
O      2.666727    2.676459    0.533356
O      0.046406    2.734977    1.091920
O     -1.393163   -0.377175   -0.811891
O     -1.656402    1.755925   -0.126928
C      1.964550    4.339686   -1.644954
C     -4.311845    1.749133    2.351574
C     -3.005640   -0.309155    2.555573
C     -3.629028   -2.749369   -2.299338
C      2.406264    3.033187   -0.972103
C      6.032035   -2.404449    3.232384
C      4.687027   -2.698274    3.203881
C      6.554356   -1.570581    2.275073
C      3.887965   -2.155094    2.221451
C      5.724555   -1.036621    1.295014
C     -4.787651   -1.050296   -0.897718
C     -4.692377   -0.067167    0.202801
C      0.639958    1.808001   -2.155190
C     -2.514081   -0.613658   -1.614346
C     -3.151835    0.964781    1.767774
C     -3.472707   -1.720234   -1.211410
C      2.097908    1.854805   -1.888186
C      4.381605   -1.313596    1.244692
C     -3.439663    0.712455    0.296995
C     -0.068554    0.900326   -1.233311
C      2.754020    0.626536   -1.425660
C      0.509482   -0.235628   -0.889008
C      1.828280   -0.590905   -1.410270
C      3.261215    0.594992   -0.051523
C      2.618968   -1.520709   -0.602717
C     -0.205129   -1.098934    0.020025
C     -2.226669    0.154907   -0.337941
N      3.484017   -0.797821    0.266960
O      3.500111    1.515783    0.788932
O      2.566454   -2.769524   -0.647071
O      0.270040   -2.202132    0.402870
O     -1.346821    1.230597   -0.721256
O     -1.457388   -0.695255    0.485253
H      3.778642   -4.084040    0.667067
H      2.994328   -2.830301   -0.469448
H      2.327761   -4.443883   -0.262435
H     -5.720497    0.542213   -3.023624
H     -5.756546   -1.256341   -2.893275
H     -6.069829   -0.328719   -1.421903
H     -2.704136   -2.067565   -2.385781
H     -4.481901   -2.497017   -2.246040
H     -3.543666   -2.115506   -0.800528
H     -4.052452    0.350637    3.388441
H     -4.113004    2.098630    3.812534
H     -5.384908    1.373043    2.811385
H      2.630282   -3.129350    2.427094
H      1.271144   -3.981955    1.658357
H      8.636916    2.287660   -1.175655
H      7.012298    1.685657   -2.901009
H      8.075773    1.972921    1.195703
H      4.787026    0.750521   -2.278739
H      5.849253    1.037773    1.804362
H     -4.155080    3.377410    0.618527
H     -5.427465    2.261277    1.059027
H     -5.309462    1.858119   -1.154494
H     -3.602966    2.307626   -1.283045
H      1.075828   -2.019634   -0.829553
H     -0.262359   -2.845069    0.122971
H     -3.149341   -0.464387    1.728901
H     -1.659692    0.500141    1.835561
H     -3.398404    0.102656   -2.794298
H     -2.728721    2.466909    2.081874
H      0.558295   -1.833110    2.159070
H     -4.517617   -0.263108    0.054682
H      2.150787   -0.393537    2.511540
H      1.702122    1.426295    1.323162
H      1.684007    4.102417    1.055127
H      2.374811    5.055977   -0.360505
H      0.766660    4.170553   -0.507011
H     -5.599553   -2.516934   -0.445580
H     -3.975997   -2.714526   -1.289313
H     -4.632002   -3.974168   -0.231517
H     -4.566128   -3.898060    2.238245
H     -4.200830   -2.332329    2.974870
H     -5.734987   -2.504884    1.955297
H     -2.598759    2.858546   -1.866621
H     -2.327243    2.619702   -0.052533
H     -3.717859    3.551667   -0.682538
H      3.287159    2.627780    0.204201
H      3.039811    3.182016   -1.481669
H      8.556942   -2.260071    1.659193
H      6.560033   -3.633672    1.796807
H      8.393996    0.005047    0.641669
H      4.366630   -2.753692    0.914200
H      6.239200    0.849560   -0.213545
H     -5.500942    1.916132    0.459261
H     -3.873111    1.741065    1.249309
H     -5.542492   -0.558057    0.086142
H     -5.291614   -0.099096    1.834362
H      0.194291    2.375433    0.728074
H      1.418466    1.097798    1.212349
H     -3.795927   -0.413282   -1.938816
H     -2.318369    0.588491   -1.950419
H     -2.894641   -2.959495    0.935995
H     -4.719562    1.629156   -1.649824
H      0.800060    2.258497   -1.535603
H     -3.115071   -0.670004    1.883436
H      2.034598    0.670333   -2.572440
H      1.927247   -1.427016   -1.756036
H      2.580470   -4.554429    2.710258
H      3.795306   -3.380079    2.199958
H      2.335153   -2.871225    3.206995
H     -6.505517    1.369606   -1.120568
H     -5.893326    2.921560   -1.733462
H     -5.463481    1.401468   -2.611711
H     -3.236775    3.445666    0.039150
H     -4.346032    3.842690   -1.285957
H     -2.871222    2.946810   -1.706799
H     -1.954441   -2.459192    1.580450
H     -3.637261   -3.154606    1.706592
H     -2.985786   -2.771847    0.094599
H      1.061254   -4.062910    1.142003
H      2.523563   -3.632814    0.245896
H      8.178532    2.625809   -2.378908
H      5.956136    3.370283   -3.179774
H      8.299414    0.980313   -0.620206
H      3.859655    2.430734   -2.179964
H      6.194777    0.051012    0.368093
H     -5.466057   -0.180008    0.895075
H     -5.301748   -1.924592    0.456621
H     -5.320467   -0.527267   -1.551760
H     -3.872514   -1.552258   -1.344090
H     -0.097771   -2.687606   -0.425699
H      1.185480   -1.849107   -1.302194
H     -1.620939   -0.321436    1.562590
H     -2.867448    0.889165    1.875096
H     -4.746353    1.629931    0.310719
H     -3.944983   -1.030762    2.385311
H      0.679404   -1.705733    1.718237
H     -3.208575    0.636697   -2.161333
H      3.137392   -0.929724    1.762763
H      1.610827    0.701155    2.162929
H      0.900837    4.560527   -1.421479
H      2.156560    4.215617   -2.724361
H      2.625673    5.134469   -1.248336
H     -5.208078    1.114967    2.243568
H     -4.364655    2.695440    1.787123
H     -4.072455    1.918662    3.431122
H     -1.974669   -0.351075    2.960648
H     -3.163939   -1.229045    1.965291
H     -3.669777   -0.293081    3.468078
H     -2.758699   -2.688210   -3.012941
H     -4.556010   -2.548502   -2.836923
H     -3.582978   -3.749548   -1.840628
H      1.867874    2.972048   -0.008540
H      3.520098    3.135460   -0.854166
H      6.668698   -2.838768    4.018045
H      4.297782   -3.357106    3.967173
H      7.612109   -1.355113    2.318341
H      2.837576   -2.397036    2.215869
H      6.158257   -0.392288    0.564896
H     -5.492874   -1.877532   -0.610624
H     -5.183358   -0.644754   -1.844983
H     -5.543352    0.667026    0.077367
H     -4.956315   -0.599088    1.164310
H      0.486145    1.446134   -3.213120
H      0.141362    2.799546   -2.093520
H     -1.576727   -1.010207   -2.001184
H     -3.019199    0.066579   -2.351163
H     -2.231424    1.570192    1.839787
H     -3.091511   -2.161333   -0.267864
H      2.582597    2.160782   -2.872616
H     -3.584117    1.749680   -0.134658
H      3.590523    0.352816   -2.097585
H      1.724625   -0.953046   -2.443096
