57

C     -0.843080   -1.028549   -0.684634
C     -2.892294   -1.408136    0.734141
C      2.860015   -1.196995    1.102156
C      3.750293    0.400049   -0.537538
C     -2.297741   -0.774449   -0.517629
C      2.514065   -0.049785    0.224766
C      0.087013   -0.161683    0.098276
C     -2.729254    0.657416   -0.516716
C     -0.377238    1.266794    0.073929
C     -1.811779    1.531388    0.318356
N      1.377473   -0.139135   -0.594523
O     -2.754565   -2.786311    0.721757
O      4.019832   -0.981985    1.855030
O      3.509027    1.686746   -1.080189
O     -2.873104    1.203041   -1.782996
O     -0.052401    1.763563   -1.206362
O     -2.111545    1.479609    1.658923
C      0.620192   -1.318543   -0.062580
C     -1.438789   -0.202593   -0.188249
C     -0.736360   -1.386514   -0.227256
C      1.254039   -0.076436    0.138171
C     -0.845838    1.013458    0.005293
C      0.550880    1.101171    0.177443
N     -1.421623   -2.624705   -0.434004
N      2.662642   -0.092774    0.304945
N     -1.605410    2.217128    0.038819
O      1.100215    2.358935    0.373950
O     -2.775434   -2.655070   -0.594786
O     -0.809454   -3.705259   -0.472861
O      3.459471    0.953372   -0.056344
O      3.182490   -1.128700    0.810779
O     -2.761711    2.389040   -0.696718
O     -1.179550    3.136824    0.774539
H     -0.686639   -2.121823   -0.475378
H     -0.597562   -0.897255   -1.771292
H     -2.475552   -0.932370    1.621616
H     -3.987199   -1.162743    0.676709
H      2.056304   -1.438495    1.840899
H      3.046865   -2.147162    0.556186
H      3.974060   -0.330564   -1.315910
H      4.635724    0.555989    0.135468
H     -2.823699   -1.251904   -1.380530
H      2.313449    0.815351    0.988287
H      0.197979   -0.584182    1.100575
H     -3.736140    0.710885   -0.028315
H      0.213191    1.808112    0.861532
H     -1.997936    2.587052   -0.040537
H      1.413228   -0.596048   -1.490612
H     -2.942751   -3.178039   -0.152048
H      4.843653   -1.082051    1.333388
H      3.889495    2.404858   -0.515083
H     -3.485136    1.980937   -1.735412
H     -0.434655    1.186033   -1.878631
H     -2.791395    2.211840    1.838856
H      1.219364   -2.213381   -0.085899
H     -2.530540   -0.292348   -0.324686
H      2.055417    2.526397    0.519444
