29

C     -0.096834    1.280669    0.595922
C      1.941065    0.635997   -0.708517
C      1.118305    0.406711    0.518716
C     -0.989462    0.962914   -0.581443
C      0.715859   -1.027150    0.657305
C     -1.476534   -0.443958   -0.423567
C     -0.392059   -1.452855   -0.240902
N     -2.167292    1.837298   -0.544952
O      3.036273   -0.241952   -0.648908
O      0.435436   -1.266532    2.009237
O     -2.388234   -0.519063    0.627261
O      0.107274   -1.912084   -1.472870
Cl     0.684822    0.000000    0.000000
H      0.140834    2.342080    0.698043
H     -0.667611    0.956500    1.509194
H      2.342782    1.658488   -0.721135
H      1.384517    0.358456   -1.626659
H      1.751954    0.656272    1.411800
H     -0.508220    1.150619   -1.555896
H      1.620858   -1.643310    0.379851
H     -2.041943   -0.710822   -1.344481
H     -0.869532   -2.360933    0.232404
H     -1.835017    2.782725   -0.268925
H     -2.857691    1.482384    0.140287
H      3.599550   -0.038107    0.139059
H      1.235105   -1.527816    2.515868
H     -2.500401   -1.486914    0.830883
H     -0.638982   -1.879617   -2.127574
H     -0.684822    0.000000    0.000000
