62

C      4.229497    2.464204    3.009975
C     -4.321419   -0.588871   -4.346041
C      3.603992   -1.422790   -0.013047
C     -3.543419    0.357419    0.498212
C      4.928243   -1.067494   -0.110292
C     -4.790696    0.908113    0.200934
C      3.284879    0.318308    1.518338
C     -3.302591   -0.379908   -1.727709
C     -0.762251   -0.981819    2.092642
C      0.680025   -0.146924   -0.923653
C      2.738652   -0.711182    0.829573
C     -2.795948   -0.287012   -0.461641
C      0.321634   -0.247457    1.350270
C     -0.422188    0.183009    0.102048
C      5.454014   -0.018470    0.600658
C     -5.289435    0.807531   -1.078468
C      4.616743    0.688853    1.431577
C     -4.545777    0.163743   -2.042393
C      1.346534   -1.181715    0.858954
C     -1.484462   -0.836552   -0.035687
O      6.807255    0.315562    0.477518
O     -6.523365    1.340323   -1.415961
O      5.118237    1.758235    2.166843
O     -5.066711    0.072954   -3.325121
O      0.988597   -1.429849   -0.467164
O     -1.574868   -1.515024    1.133293
C      1.361902   -0.362405    0.156689
C      0.776781    1.023381   -0.016504
C     -0.754224   -1.003208   -0.168735
C     -1.412082    0.312026    0.242179
O      0.343864   -1.159980    0.708546
O     -0.429099    1.178382    0.641637
H      3.761806    1.774849    3.771634
H      4.788896    3.209030    3.623707
H      3.381254    2.891448    2.450804
H     -3.503668    0.038803   -4.696604
H     -3.958388   -1.583573   -3.972659
H     -4.972983   -0.837197   -5.214362
H      3.269125   -2.261987   -0.607059
H     -3.193097    0.461293    1.515632
H      5.598689   -1.631178   -0.773112
H     -5.357351    1.407025    0.966537
H      2.650119    0.880903    2.171490
H     -2.719547   -0.879719   -2.464604
H     -0.346777   -1.844761    2.674418
H     -1.329098   -0.300439    2.776325
H      1.540810    0.527217   -0.809406
H      0.270387   -0.162997   -1.943215
H      0.664531    0.609464    1.950646
H     -0.717915    1.222308    0.082912
H      1.375688   -2.154783    1.438417
H     -1.213488   -1.560558   -0.875379
H      7.418755   -0.189206   -0.119337
H     -7.102920    1.820871   -0.740004
H      1.578733   -0.757473   -0.868891
H      2.255979   -0.380113    0.785851
H      0.704401    1.311271   -1.098565
H      1.500301    1.724034    0.483455
H     -0.365762   -0.828986   -1.206369
H     -1.453550   -1.834866   -0.116522
H     -1.984946    0.697474   -0.620499
H     -2.122298    0.080464    1.077727
