55

C      5.266874   -2.134501    0.548207
C      5.343018   -0.769664    0.625964
C      4.182740   -2.701635   -0.076351
C     -4.210872   -1.596942    0.483588
C      0.613619    2.408558    1.416591
C     -4.294507   -0.538655    1.534258
C      0.400293    3.328946    0.225672
C      4.347339    0.029808    0.086380
C      3.218602   -1.875021   -0.597131
C     -3.694795   -1.148789   -0.841521
C      1.406404    1.191531    1.005608
C     -0.481358    2.498589   -0.675402
C     -3.136493    0.416889    1.568432
C     -0.421901   -1.531494   -0.924726
C      2.181700    0.285056   -1.107698
C     -0.619096    0.595065   -2.096718
C      3.242635   -0.506613   -0.547556
C     -1.401229   -0.594142   -1.583559
C      0.266141   -0.765622    0.156651
C     -2.527610   -0.188626   -0.720237
C     -0.814021   -0.451899    1.129041
C      0.932750    0.516444   -0.246536
N      0.072792    1.290230   -1.054515
N     -2.097981   -0.093578    0.661420
O     -0.607733   -0.500250    2.356763
H      6.039052   -2.779944    0.966212
H      6.192693   -0.328463    1.115209
H      4.072814   -3.780239   -0.166256
H     -5.265193   -1.967583    0.314347
H     -3.671424   -2.515442    0.860462
H     -0.381232    2.174098    1.832922
H      1.175946    2.973121    2.172572
H     -4.372514   -1.022244    2.543165
H     -5.239121    0.068981    1.428538
H     -0.189004    4.195796    0.608030
H      1.346943    3.624810   -0.226221
H      4.513684    1.082009    0.180984
H      2.390727   -2.361433   -1.085987
H     -4.505226   -0.733310   -1.458716
H     -3.319114   -2.051812   -1.377021
H      1.407139    0.520777    1.889670
H      2.450342    1.561553    0.941697
H     -0.633200    3.130308   -1.590177
H     -1.475859    2.478963   -0.180463
H     -2.749786    0.522681    2.589683
H     -3.476430    1.400229    1.205085
H      0.176188   -2.090581   -1.620975
H     -1.063459   -2.296351   -0.390339
H      2.608554    1.309901   -1.340118
H      1.861215   -0.058757   -2.140744
H      0.006727    0.245640   -2.927434
H     -1.365715    1.298459   -2.530166
H     -1.785841   -1.130013   -2.497534
H      1.015708   -1.442074    0.634092
H     -2.931924    0.807235   -1.077145
