46

C      3.618212   -0.871440   -1.226657
C      3.545237   -0.074430    1.774286
C     -2.282527   -2.694839    1.685237
C     -0.125288   -3.578969   -0.777505
C      0.074423    4.279883   -0.811590
C     -3.897286    1.602644   -0.603969
C     -1.322166    4.222751   -0.909799
C     -3.350349    2.862299   -0.805058
C      0.832921    3.163331   -0.535861
C     -3.123440    0.500669   -0.329933
C      2.413084   -0.649945   -0.386199
C      2.632404    0.417667    0.689432
C     -0.967574   -2.218607    1.069159
C     -1.028941   -2.435924   -0.402564
C     -1.985230    3.025910   -0.729770
C      0.145648    1.954226   -0.355312
C     -1.750155    0.669275   -0.254969
C     -1.214683    1.923215   -0.455797
C      0.608452    0.598343   -0.055415
C     -0.632043   -0.272427    0.014118
O      1.393828    0.051021   -1.080802
O      1.327331    0.592582    1.108127
O     -0.766192   -0.877878    1.254147
O     -0.655881   -1.241042   -0.949580
H      3.736256   -0.125794   -2.009387
H      4.501842   -0.956908   -0.553614
H      3.519764   -1.879395   -1.711092
H      4.578923   -0.041110    1.373193
H      3.270090   -1.059882    2.163553
H      3.494407    0.659755    2.601496
H     -2.187898   -3.765347    1.875229
H     -3.066358   -2.535922    0.899812
H     -2.527277   -2.088610    2.584492
H     -0.685164   -4.513075   -0.666443
H      0.734305   -3.630013   -0.065169
H      0.271885   -3.498537   -1.804791
H      0.555503    5.215970   -0.955345
H     -4.957463    1.511378   -0.669368
H     -1.913551    5.103219   -1.126680
H     -3.944726    3.729930   -1.019660
H      1.907134    3.231140   -0.465169
H     -3.587969   -0.448243   -0.182591
H      1.948288   -1.556343    0.016250
H      3.088595    1.263609    0.183307
H     -0.163737   -2.835107    1.526000
H     -2.062634   -2.729035   -0.742890
