120

C     -5.383549   -0.382172    0.986627
C     -4.729495   -3.369496    0.134210
C      4.972703   -1.382637   -2.396335
C      4.912060   -0.014595    0.850431
C      0.436189    2.588382    3.141770
C     -0.653571    3.910869   -1.314129
C      0.142311    3.637946    2.288707
C     -0.410787    4.270813    0.008111
C      0.478718    1.285391    2.686360
C     -0.591310    2.580835   -1.691200
C     -0.933919   -1.189943    1.001065
C     -1.422301   -0.523574   -1.261236
C      1.523611   -1.001671    0.597611
C      1.036821   -0.302788   -1.654028
C     -4.068856   -1.072014    0.903626
C     -4.008149   -2.097021   -0.233256
C      4.224377   -1.401426   -1.058773
C      4.282874    0.009667   -0.521537
C     -0.107435    3.310564    0.950453
C      0.227473    0.968447    1.346420
C     -0.288994    1.594036   -0.767167
C     -0.057615    1.997996    0.524139
C      0.192744   -0.279680    0.564787
C     -0.137340    0.117498   -0.807242
C     -2.032041   -1.057534   -0.008512
C      2.155971   -0.652724   -0.707535
O     -3.021350   -0.233266    0.513677
O     -2.628627   -2.281168   -0.312327
O      2.893450   -1.663959   -1.265586
O      2.979740    0.443757   -0.523190
C     -4.106186   -1.335416   -2.553570
C     -4.279218   -3.330405    0.516863
C      5.395240    0.490696    0.672784
C      4.849466   -2.602578    0.296651
C     -0.811491    3.354844    2.885881
C     -0.162199    3.927112   -1.806178
C     -0.721581    4.218383    1.811766
C     -0.393231    4.532269   -0.574311
C     -0.675592    1.981629    2.711640
C     -0.034141    2.543631   -1.921937
C     -1.505596   -0.658169    1.157295
C     -1.113355   -0.520446   -1.232890
C      0.959102   -0.428802    1.539664
C      1.305400   -0.293046   -0.857574
C     -4.058450   -1.465208   -1.066703
C     -3.438029   -2.760109   -0.606494
C      4.165720   -0.193806    0.186743
C      3.948870   -1.554283    0.862547
C     -0.491786    3.732557    0.523560
C     -0.451208    1.526977    1.443120
C     -0.135297    1.727390   -0.797567
C     -0.364156    2.378545    0.394756
C     -0.265122    0.158946    0.927345
C     -0.056492    0.272333   -0.542263
C     -2.050025   -1.059769   -0.175289
C      2.012341   -0.514861    0.448102
O     -3.305233   -0.518792   -0.426018
O     -2.169684   -2.433465   -0.207091
O      2.988083    0.445831    0.584253
O      2.602946   -1.757756    0.546795
H     -5.277693    0.558469    1.531890
H     -5.819847   -0.287015   -0.021936
H     -6.068591   -1.036000    1.592302
H     -4.091123   -4.056412    0.724567
H     -5.018345   -3.871527   -0.814446
H     -5.668992   -3.091416    0.649527
H      4.609411   -2.172541   -3.063012
H      4.768857   -0.396583   -2.859734
H      6.045329   -1.460651   -2.133799
H      5.989281   -0.302449    0.689206
H      4.897731    0.966598    1.341017
H      4.490843   -0.823571    1.488040
H      0.633126    2.813429    4.180733
H     -0.894935    4.681568   -2.060292
H      0.098859    4.670251    2.603878
H     -0.462896    5.305410    0.284425
H      0.711598    0.494804    3.382491
H     -0.779142    2.271596   -2.730025
H     -1.279566   -0.826808    1.999134
H     -0.588680   -2.227881    1.046355
H     -1.146082   -1.313512   -1.996260
H     -2.056010    0.245668   -1.769542
H      2.092821   -0.654732    1.483837
H      1.339153   -2.083956    0.744045
H      0.767548   -1.139389   -2.333261
H      1.323617    0.563925   -2.278421
H     -3.741909   -1.571309    1.830741
H     -4.435627   -1.622414   -1.123603
H      4.696380   -2.136058   -0.384758
H      4.881178    0.691973   -1.155495
H     -4.046354   -0.316061   -2.936306
H     -5.090359   -1.755816   -2.907795
H     -3.337362   -1.974482   -3.065379
H     -3.796714   -4.257601    0.845891
H     -5.300538   -3.487365    0.089816
H     -4.315740   -2.541076    1.306109
H      5.525817    0.337493    1.743864
H      5.274887    1.589153    0.443758
H      6.257491    0.167639    0.051270
H      5.838560   -2.501571    0.794705
H      4.449336   -3.594253    0.617118
H      4.918980   -2.556137   -0.801146
H     -0.990274    3.760197    3.873194
H     -0.086850    4.580761   -2.668284
H     -0.828408    5.273776    1.961711
H     -0.496706    5.598020   -0.452643
H     -0.755024    1.350471    3.589297
H      0.145020    2.082420   -2.881616
H     -1.311124   -1.532262    1.837075
H     -2.272776   -0.034303    1.661966
H     -0.650398   -1.429593   -1.717500
H     -1.641188    0.061106   -2.017352
H      0.689778   -1.456241    1.903802
H      1.347592    0.135567    2.411619
H      1.256761   -1.205865   -1.492954
H      1.819987    0.483838   -1.495966
H     -5.101122   -1.395096   -0.681087
H     -3.391771   -3.454286   -1.479926
H      4.143271   -0.338006   -0.910820
H      4.106135   -1.454659    1.952783
