64

C     -2.556678   -0.448437   -1.419048
C     -1.915843   -1.070977    1.319577
C      3.351954    1.046933    0.927769
C      2.937060    1.627111   -0.241771
C      2.613363    0.001820    1.450683
C      1.808598    1.179174   -0.882923
C      1.473938   -0.441175    0.791619
C     -0.156928   -0.388068   -1.020111
C     -1.435721    0.251195   -0.638072
C      1.049396    0.137172   -0.385722
N     -1.791705    0.226923    0.736582
C     -2.621076    1.098445   -0.394173
C     -2.444624   -1.672289    0.436203
C      3.571214   -0.460041    0.674247
C      3.044597    0.667249    1.228121
C      2.894535   -1.123399   -0.322673
C      1.809180    1.151825    0.780957
C      1.675863   -0.628840   -0.750938
C     -0.189455    1.051697   -0.658672
C     -1.350341    0.461192    0.156201
C      1.111913    0.506514   -0.215045
N     -1.376668   -0.941915   -0.153485
Au     0.000000    0.000000    0.000000
Au     0.000000    0.000000    0.000000
Cl     0.000000    0.000000    0.000000
Cl     0.000000    0.000000    0.000000
Cl     0.000000    0.000000    0.000000
Cl     0.000000    0.000000    0.000000
Cl     0.000000    0.000000    0.000000
Cl     0.000000    0.000000    0.000000
Cl     0.691253    0.000000    0.000000
Cl     0.683978    0.000000    0.000000
H     -2.445012   -1.540301   -1.192260
H     -3.501549   -0.042664   -1.058868
H     -2.372868   -0.318295   -2.500690
H     -1.320027   -1.845043    0.817324
H     -2.977508   -1.416912    1.390134
H     -1.542650   -1.006277    2.373846
H      4.229351    1.363086    1.466973
H      3.551733    2.453238   -0.622106
H      2.935829   -0.460183    2.373193
H      1.511929    1.654167   -1.795083
H      0.962696   -1.264293    1.275779
H     -0.197951   -1.487684   -0.890234
H     -0.035438   -0.239694   -2.131213
H     -1.469084    1.308869   -0.980824
H     -2.706886    0.720315    0.835448
H     -2.575001    2.207147   -0.336157
H     -2.677583    0.780427   -1.457624
H     -3.518448    0.739188    0.141879
H     -3.076200   -2.076149   -0.409940
H     -3.129940   -1.083707    1.055432
H     -2.075453   -2.581760    0.968670
H      4.523652   -0.846868    1.008256
H      3.564489    1.210550    2.017858
H      3.293889   -2.024287   -0.775060
H      1.435069    2.039944    1.247961
H      1.157812   -1.165985   -1.541802
H     -0.336745    0.845850   -1.739913
H     -0.208044    2.176166   -0.575150
H     -1.232291    0.706570    1.212916
H     -1.270344   -1.037525   -1.178372
H     -0.691253    0.000000    0.000000
H     -0.683978    0.000000    0.000000
