192

C      3.788136   -0.005018   -2.223214
C     -3.803970    0.281725   -1.977978
C      1.441161    1.639607   -0.082971
C      4.513031   -1.455942   -0.424235
C      2.374373   -0.859745    1.218735
C      1.073628   -0.283586    1.798220
C      5.944999   -1.116049   -0.686355
C     -5.501641   -0.873737    0.130406
C     -1.080043    0.044350   -1.819025
C     -4.046768   -1.114938   -0.001363
C      0.371452    0.135963   -1.773042
C     -4.964622    1.677417    0.162018
C     -3.259364    0.884902    1.747087
C      3.585939   -0.275840   -0.786569
C     -3.511323    1.242812    0.292633
C     -5.890345    0.538218    0.301631
C      2.260522   -0.648986   -0.303926
C      0.199539   -0.379578    0.631078
C     -1.814583   -0.339868   -0.578855
C     -1.942819    0.144402    1.800861
C      6.466203    0.024384    0.058084
C     -1.080416    0.311253    0.608158
C     -3.263281    0.032611   -0.588426
C      1.086666    0.222508   -0.477164
O     -7.050770    0.779432    0.576080
O     -1.672795   -0.516937    2.771292
O      6.268740    1.210965   -0.295325
O      7.212389   -0.192135    1.205438
C      4.690236   -1.337507   -0.809805
C     -3.584889    1.495953   -1.442904
C      1.306499    1.225318    0.616402
C      4.185286   -0.051688    1.156649
C      2.134095   -2.132001    0.388686
C      0.967554   -1.729051    1.334402
C      5.641256    0.430223    1.104013
C     -5.491499   -0.567378   -0.687848
C     -0.871351    0.935803   -1.398316
C     -4.036319   -0.833432   -0.815217
C      0.520218    0.431109   -1.548693
C     -4.892068    1.277889    1.060021
C     -3.321673   -0.418409    1.848498
C      3.704929   -0.263329   -0.263746
C     -3.486606    0.782031    0.916370
C     -5.847590    0.357819    0.397234
C      2.354247   -0.837858   -0.412509
C      0.165884   -1.004801    0.344595
C     -1.745008   -0.018241   -0.657867
C     -2.001522   -1.041032    1.576332
C      5.812447    1.682481    0.375157
C     -1.068082   -0.311448    0.697972
C     -3.160029    0.378195   -0.512638
C      1.166785    0.013512   -0.226421
O     -7.010925    0.379255    0.790440
O     -1.726460   -2.100470    2.065557
O      5.171670    2.700533    0.710654
O      6.701200    1.744930   -0.712454
C      4.483994   -1.681651   -0.565709
C     -2.707576    2.121561   -1.315328
C      1.167070    1.313623   -0.457678
C      4.038655    0.411191    0.566057
C      2.015015   -1.785224    0.997381
C      0.977838   -0.896791    1.742732
C      5.380983    1.005017    0.436683
C     -4.942642   -0.863527   -0.784267
C     -1.250954   -0.532475   -1.679272
C     -4.147038    0.182163   -1.515659
C      0.205506   -0.480981   -1.773407
C     -5.237708    1.227919    0.616001
C     -3.348645    0.259116    1.800982
C      3.529070   -0.475450   -0.509059
C     -3.724470    1.191404    0.669943
C     -5.668955   -0.176914    0.318337
C      2.169208   -1.015128   -0.319541
C      0.064868   -0.685277    0.610881
C     -1.966715   -0.134976   -0.458555
C     -1.881910    0.106959    1.930450
C      6.547582    0.156986    0.345864
C     -1.054454    0.260208    0.718490
C     -3.095452    0.843814   -0.644069
C      0.981487   -0.161585   -0.498815
O     -6.548363   -0.715811    0.933397
O     -1.341268   -0.136203    2.983676
O      7.064446   -0.135381   -0.756136
O      7.120767   -0.354637    1.520967
H      2.920208    0.283006   -2.811816
H      4.551321    0.811234   -2.398766
H      4.234179   -0.893550   -2.746498
H     -4.913061    0.182540   -1.931805
H     -3.455418   -0.540875   -2.634114
H     -3.592334    1.285554   -2.358444
H      1.232338    2.317905   -0.953243
H      0.818730    2.035650    0.745808
H      2.483022    1.755997    0.275150
H      4.181858   -2.279317   -1.087128
H      4.340142   -1.790120    0.614642
H      3.185817   -0.215434    1.623783
H      2.501656   -1.905899    1.488992
H      1.215777    0.692169    2.244005
H      0.717174   -1.004424    2.586038
H      6.040977   -0.925087   -1.797721
H      6.560727   -2.027320   -0.517359
H     -5.852339   -1.410046    1.061133
H     -6.085643   -1.365399   -0.693674
H     -1.554341    1.015964   -2.159472
H     -1.421578   -0.679236   -2.620832
H     -3.910682   -1.976024   -0.720022
H     -3.589835   -1.479446    0.950119
H      0.691080    1.035011   -2.377260
H      0.810742   -0.740879   -2.335279
H     -5.179990    2.398495    0.984406
H     -5.165829    2.176098   -0.807267
H     -3.089923    1.842777    2.281432
H     -4.078636    0.283105    2.137936
H      4.032283    0.568977   -0.219392
H     -2.912550    2.126696   -0.027535
H      1.962440   -1.674620   -0.682194
H      0.122886   -1.468183    0.337662
H     -1.691165   -1.434145   -0.435412
H     -1.056394    1.382642    0.355926
H      7.242323    0.507993    1.946672
H      4.854538   -2.043859   -0.003049
H      4.244644   -1.800922   -1.730551
H      5.642032   -0.849940   -1.074924
H     -2.956327    2.377372   -1.274035
H     -3.489034    1.118048   -2.504087
H     -4.671024    1.679248   -1.309742
H      1.249470    1.107064    1.692403
H      0.450730    1.923822    0.359445
H      2.201843    1.836915    0.365198
H      4.282858   -1.077306    1.630765
H      3.555463    0.587076    1.764413
H      1.689378   -2.928016   -0.246528
H      2.982405   -2.451061    0.965613
H      0.504133   -2.652203    1.716640
H      1.356577   -1.156661    2.180732
H      5.900612    0.550551    2.202528
H      6.319899   -0.375521    0.770244
H     -5.936930   -0.285753   -1.679125
H     -5.987033   -1.553365   -0.433179
H     -1.287569    0.973938   -2.456950
H     -0.962666    1.995239   -1.067678
H     -3.777729   -1.136090   -1.855602
H     -3.683351   -1.659234   -0.160105
H      1.138094    1.272457   -1.936732
H      0.567866   -0.374970   -2.294397
H     -5.039198    2.329442    0.756688
H     -5.135514    1.248337    2.156985
H     -4.163363   -1.123005    1.744402
H     -3.346749    0.008916    2.896168
H      3.840263    0.598912   -0.926530
H     -2.783380    1.585744    1.284963
H      2.300314   -1.191419   -1.512030
H     -0.051912   -1.707959   -0.500129
H     -1.678376   -0.998313   -1.229307
H     -0.867452    0.673414    1.187342
H      6.458201    2.310693   -1.523318
H      5.127700   -1.767466    0.300725
H      5.060903   -1.712894   -1.507973
H      3.833226   -2.619026   -0.647951
H     -1.863277    2.064229   -1.999807
H     -3.574339    2.544204   -1.903632
H     -2.478253    2.939686   -0.571003
H      2.051583    1.676879   -1.006498
H      0.306801    1.785552   -1.041341
H      1.119674    1.800167    0.511044
H      4.087138   -0.256788    1.506103
H      3.347215    1.248696    0.865810
H      2.928883   -1.914344    1.552438
H      1.490810   -2.748402    0.863996
H      0.549605   -1.498401    2.570532
H      1.454175   -0.020337    2.174066
H      5.482707    1.728266    1.317757
H      5.325687    1.748263   -0.431249
H     -4.368627   -1.732065   -0.461625
H     -5.699123   -1.242268   -1.520314
H     -1.577931   -1.565913   -2.026886
H     -1.674348    0.111937   -2.516216
H     -4.868375    0.918837   -1.929868
H     -3.688353   -0.316908   -2.403344
H      0.642881   -1.443340   -2.141061
H      0.554829    0.269065   -2.544586
H     -5.609400    1.575108    1.588519
H     -5.616011    1.881998   -0.195981
H     -3.797717    0.679404    2.719019
H     -3.784062   -0.747535    1.669146
H      3.613701   -0.014124   -1.533525
H     -3.414384    2.220088    1.017221
H      2.045502   -1.852916   -1.108582
H     -0.275550   -1.692048    0.262100
H     -2.486675   -1.064212   -0.058933
H     -0.835297    1.326035    0.542263
H      7.758366   -1.157376    1.489699
