52

C     -1.941195   -1.474987    0.155397
C      2.176173   -1.576947   -0.282983
C     -1.894785    1.503447    1.532391
C     -0.642020    0.818733    1.925822
C      2.362073    0.260337    1.937007
C      3.786924    0.192643    1.397161
C     -4.109722   -0.016414   -1.673658
C     -2.638131   -0.141285   -1.754321
C     -3.941826    0.186683    0.913787
C      1.697637    0.393182   -1.662645
C     -2.690092    0.895778    0.457436
C     -4.693726   -0.126671   -0.339709
C      0.107991    0.158580    0.829194
C      1.531060    0.616972    0.753359
C      3.672204    0.335237   -0.106263
C      0.249725    0.034810   -1.657026
C     -0.545911    0.472645   -0.519541
C      4.675088   -0.487763   -0.794864
C     -1.926109   -0.067402   -0.433824
C      2.265601   -0.081519   -0.367016
O     -5.869580   -0.496561   -0.217453
O     -0.148650   -0.600478   -2.614607
O      5.468138   -1.176588   -0.103415
O      4.802418   -0.552628   -2.170649
H     -1.227343   -2.099242   -0.389723
H     -1.839607   -1.483968    1.238037
H     -2.960764   -1.905047   -0.068229
H      2.795442   -1.988575   -1.106807
H      2.575902   -1.940738    0.705550
H      1.169777   -1.981856   -0.389978
H     -2.544749    1.575857    2.454914
H     -1.647208    2.582166    1.305287
H      0.042382    1.573297    2.405746
H     -0.865325    0.094760    2.764458
H      2.277860    0.973971    2.784401
H      2.028111   -0.763135    2.279575
H      4.242151   -0.785430    1.668912
H      4.409896    1.028729    1.765807
H     -4.397249    0.977042   -2.127530
H     -4.626993   -0.771811   -2.334780
H     -2.406051   -1.139446   -2.198627
H     -2.200930    0.599297   -2.484421
H     -4.512338    0.931956    1.540924
H     -3.725802   -0.742275    1.480270
H      2.259421   -0.079529   -2.481478
H      1.829559    1.505570   -1.742704
H     -3.042899    1.713567   -0.237844
H      0.113419   -0.937109    1.013828
H      1.613676    1.705470    0.563098
H      3.785152    1.407946   -0.415214
H     -0.602477    1.599790   -0.559066
H      5.703702   -0.721057   -2.637985
