84

C      3.800160   -1.227628   -0.376773
C     -1.354069    2.768721   -0.631719
C     -1.507923   -0.831998    1.864694
C      1.123075   -1.616185    0.488316
C     -3.582433   -0.280912   -0.394512
C     -0.247005   -1.991120    0.049988
C     -2.562644   -1.378901   -0.253451
C      0.581761    0.718308    0.330497
C      2.996038   -0.009103    0.135387
C     -1.785694    1.470620   -0.063706
C      1.551382   -0.308906   -0.208427
C     -0.775849    0.365592   -0.212350
C     -3.018813    1.022285   -0.751239
C      3.505403    1.215258   -0.514200
C     -1.275726   -0.900355    0.386321
O     -3.550387    1.713900   -1.588204
O      4.387913    1.133543   -1.414833
O      3.054159    2.472269   -0.177702
C      3.951531   -0.402587   -0.785665
C     -1.246340    0.747243    2.667532
C     -1.613378   -1.836603   -0.857397
C      1.046196   -0.799510   -1.577795
C     -3.083156    1.420571   -0.506103
C     -0.259541   -0.174827   -2.015304
C     -2.581630    0.330593   -1.413215
C      0.465197   -0.404366    0.751105
C      2.821851   -0.574975    0.184030
C     -1.877123    0.214467    1.397244
C      1.499269   -0.093134   -0.327699
C     -0.826585    0.237049    0.306350
C     -2.980882    1.085342    0.923300
C      3.146632    0.186093    1.403071
C     -1.345054   -0.353029   -0.960932
O     -3.808365    1.532619    1.687576
O      3.242074   -0.386167    2.505122
O      3.347123    1.546429    1.323437
H      4.744619   -0.868690   -0.864425
H      4.024243   -1.920252    0.453297
H      3.235891   -1.760235   -1.163860
H     -2.081635    3.176677   -1.392061
H     -1.351388    3.533439    0.190190
H     -0.368736    2.775820   -1.115979
H     -0.640333   -0.562673    2.460617
H     -1.798726   -1.874624    2.188198
H     -2.362986   -0.173909    2.058159
H      1.157535   -1.394281    1.566810
H      1.823041   -2.388737    0.174230
H     -4.333223   -0.636934   -1.141233
H     -4.153062   -0.174592    0.560785
H     -0.243393   -2.054890   -1.065696
H     -0.532947   -2.964578    0.459384
H     -3.006787   -2.149231    0.424840
H     -2.385407   -1.899137   -1.217333
H      0.926894    1.705100    0.040322
H      0.633906    0.654545    1.434307
H      3.084328    0.008814    1.227174
H     -2.042511    1.551904    1.019672
H      1.414566   -0.425787   -1.300042
H     -0.648428    0.194177   -1.307242
H      3.565191    3.312686   -0.358204
H      4.273116   -1.390923   -1.164769
H      3.709322    0.250949   -1.640012
H      4.848413    0.040244   -0.292536
H     -0.780891   -0.055134    3.261427
H     -0.562159    1.593633    2.483443
H     -2.088680    1.157286    3.292225
H     -1.839535   -2.200075   -1.881388
H     -0.775438   -2.415807   -0.470998
H     -2.534221   -2.030563   -0.256144
H      0.966768   -1.876109   -1.384688
H      1.752818   -0.671130   -2.419103
H     -4.156690    1.573966   -0.746911
H     -2.579904    2.375752   -0.766009
H     -0.574852   -0.548329   -2.999151
H     -0.092717    0.917926   -2.111749
H     -3.420859   -0.391845   -1.560292
H     -2.434919    0.801660   -2.421218
H      0.811389    0.133510    1.660776
H      0.368991   -1.483819    0.937060
H      2.731480   -1.645070    0.460633
H     -2.214644   -0.819454    1.616477
H      1.530180    0.995297   -0.456993
H     -0.600637    1.306981    0.112856
H      3.765850    2.105849    2.042409
