52

C     -3.219133    2.433226    0.908415
C      2.012541   -2.303715   -0.638285
C     -2.045248    1.571395    1.149372
C      5.037179    1.522632    0.395555
C      5.118330    0.237076   -0.083952
C      3.797903    1.930675    0.840017
C     -0.003207    1.411946   -1.496824
C      4.029341   -0.605501   -0.123240
C      2.694019    1.088321    0.804337
C     -3.411102   -1.207188    0.846127
C     -1.477542    1.235347   -1.222518
C     -3.080055   -0.154467   -0.145423
C      0.535314   -0.015680   -1.539479
C     -1.066045   -1.660447    1.163640
C      1.631611   -1.124626    0.274803
C      2.801124   -0.186837    0.322112
C     -2.318853   -2.265441    0.656524
C     -0.650995   -0.347419    0.575790
C     -1.740758    0.536226    0.087191
N      0.444791   -0.563151   -0.272542
O     -2.277893   -2.643559   -0.669584
Br     0.760638    0.000000    0.000000
H     -4.098296    1.937612    1.424161
H     -3.551168    2.586092   -0.116420
H     -3.131892    3.409988    1.475172
H      2.703899   -2.963490   -0.083172
H      1.075452   -2.802402   -0.944597
H      2.471663   -1.864713   -1.543606
H     -2.127734    1.106325    2.153093
H     -1.139375    2.235595    1.213765
H      5.886694    2.185081    0.428032
H      6.085921   -0.095670   -0.436014
H      3.733461    2.948942    1.220172
H      0.434417    2.034620   -0.725881
H      0.121956    1.817793   -2.526075
H      4.211889   -1.597019   -0.521599
H      1.768932    1.495218    1.175342
H     -4.369081   -1.654338    0.574226
H     -3.429150   -0.857978    1.893152
H     -1.842496    0.585136   -2.076999
H     -2.037554    2.176357   -1.352029
H     -3.885413    0.593734   -0.132321
H     -3.070378   -0.610010   -1.152740
H      1.558337    0.043329   -1.927898
H     -0.110703   -0.575967   -2.256430
H     -1.158972   -1.637313    2.291405
H     -0.261654   -2.440477    1.007842
H      1.506851   -1.564045    1.292193
H     -2.591339   -3.107951    1.287069
H     -0.186265    0.184374    1.478306
H     -1.379327   -2.457638   -1.046801
H     -0.760638    0.000000    0.000000
