36

C     -0.995116    2.698555    1.275067
C      3.238384   -0.918778    0.369147
C     -2.433873   -1.696930   -0.565736
C     -0.734563   -1.443365    1.264728
C      0.713707   -1.025331    1.231514
C     -0.715107    0.411412   -1.884378
C     -0.681513    1.442847    0.559664
C      2.260685   -0.278797   -0.594312
C     -2.038122    0.843393   -1.287765
C     -0.200946   -0.687929   -0.977663
C     -1.805803    0.549778    0.181307
C      0.581028    1.182261    0.293720
C      2.635870    1.153127   -0.685449
C     -1.342381   -0.889285    0.033248
C      0.887823   -0.249174   -0.052633
O     -3.008559    1.295724   -1.829253
O      3.526411    1.650772   -1.422286
O      1.786559    1.817876    0.221717
H     -0.462399    2.677163    2.268451
H     -2.059845    2.854357    1.442455
H     -0.567933    3.595918    0.755765
H      4.257745   -0.543602    0.069435
H      3.203348   -2.005722    0.378292
H      3.046942   -0.448710    1.368749
H     -3.387230   -1.425094   -0.058115
H     -2.217037   -2.781233   -0.427240
H     -2.491622   -1.451207   -1.659148
H     -0.769044   -2.560493    1.207874
H     -1.244694   -1.128604    2.195687
H      1.384258   -1.897843    1.295940
H      0.887835   -0.377649    2.124872
H     -0.841391    0.071745   -2.924709
H     -0.078322    1.306096   -1.860610
H      2.332510   -0.796276   -1.572440
H      0.020093   -1.623865   -1.519539
H     -2.687696    0.678864    0.783642
