39

C     -1.983205    2.470288   -0.133206
C      2.873720    0.761064   -1.256851
C     -1.988205   -2.400701    0.414546
C     -0.739819   -1.486158   -1.528081
C      0.488031   -0.657950   -1.696645
C     -0.430419   -0.350386    1.881160
C     -1.304631    1.217052   -0.568814
C      2.281632   -0.106949   -0.166375
C     -1.768338    0.209804    1.572286
C      0.087063   -1.017858    0.651842
C     -1.934161    0.027974    0.083231
C      0.169502    1.218848   -0.231984
C      2.812460    0.224979    1.160441
C     -1.208056   -1.260173   -0.135880
C      0.810131   -0.096514   -0.301494
O     -2.525231    0.693857    2.362671
O      0.671492    2.262861    0.053877
O      3.422136   -0.607359    1.882275
O      2.663820    1.500454    1.693326
H     -2.881055    2.263620    0.514641
H     -2.413815    3.034437   -1.011899
H     -1.346966    3.183766    0.396156
H      3.046629    0.160718   -2.186116
H      2.248593    1.604918   -1.540532
H      3.886583    1.071301   -0.887659
H     -1.572100   -3.341781   -0.043452
H     -3.045879   -2.325878    0.108788
H     -1.857827   -2.520982    1.505071
H     -0.432360   -2.560368   -1.612132
H     -1.514452   -1.321001   -2.303107
H      1.352326   -1.225989   -2.100806
H      0.300548    0.195925   -2.411366
H      0.214818    0.423857    2.307826
H     -0.587489   -1.134951    2.655751
H     -1.425906    1.108113   -1.671345
H      2.626209   -1.157195   -0.405965
H      0.617622   -1.947533    0.856369
H     -3.008245   -0.030614   -0.183973
H      3.394844    1.916504    2.277426
