66

C     -1.852288    0.261920   -1.762757
C     -1.193678    2.021516   -0.128181
C     -2.342256   -0.396590    1.246298
C      0.431988   -1.152888   -1.089224
C     -0.688662   -1.644917   -0.179251
C      2.451949    0.594541    0.757183
C      1.035397    0.719454    0.449704
C      0.519005    0.323734   -0.880396
C      3.097601   -0.703720    0.722816
C      0.112878    0.004264    1.383926
C     -0.979499    0.616170   -0.618899
C     -1.065981   -0.393173    0.539008
O      2.762045   -1.598564    1.534853
O      4.089623   -0.994366   -0.189743
O      0.185814   -0.253395    2.552019
C     -0.651429    1.258386    1.683428
C     -1.683227    1.679842   -0.475312
C     -2.442452   -1.007800    0.904340
C      0.053692   -0.086367   -1.683166
C     -1.272599   -0.755890   -1.315600
C      2.374412   -1.198891   -0.087960
C      1.162046   -0.514713    0.437411
C      0.568763    0.548529   -0.404131
C      3.498096   -0.264237   -0.309170
C     -0.002048   -1.462364    0.597515
C     -0.762251    0.777205    0.314066
C     -1.211973   -0.685217    0.192238
O      4.600244   -0.607069   -0.792460
O      3.322510    1.059880    0.036785
O     -0.015872   -2.605480    0.966652
H     -1.393481   -0.310132   -2.581414
H     -2.818639   -0.230769   -1.444760
H     -2.177846    1.232492   -2.250544
H     -0.551964    2.770960   -0.629206
H     -1.210815    2.105806    0.972233
H     -2.242500    2.297952   -0.453394
H     -2.481717   -1.383194    1.742439
H     -3.177187   -0.148535    0.588259
H     -2.287877    0.338863    2.092891
H      1.354976   -1.627750   -0.747908
H      0.220969   -1.421504   -2.151586
H     -0.366566   -2.466950    0.487188
H     -1.573787   -1.967499   -0.798178
H      3.017040    1.368578    0.151493
H      2.608579    0.983862    1.817312
H      0.759825    1.815593    0.589747
H      0.895966    0.889756   -1.731351
H      4.861091   -1.651514    0.009423
H     -1.218413    2.201860    1.814721
H      0.355396    1.441579    2.081871
H     -1.129877    0.525964    2.380550
H     -2.726507    1.298016   -0.483820
H     -1.345545    1.903176   -1.483083
H     -1.752342    2.669529    0.057034
H     -3.094816   -0.125638    1.015563
H     -2.189059   -1.365250    1.934845
H     -2.957243   -1.854750    0.413177
H      0.690458   -0.870008   -2.091933
H     -0.086874    0.660429   -2.487904
H     -1.325975   -1.795665   -1.692589
H     -2.138591   -0.208629   -1.723324
H      2.748555   -1.985045    0.618889
H      2.216369   -1.717142   -1.079887
H      1.399582   -0.200233    1.477001
H      1.125925    1.461578   -0.560124
H      3.891044    1.824412   -0.255621
