74

C      2.777927   -0.863464    1.578771
C     -1.982954   -2.582948   -0.805240
C     -1.221468    1.251105    1.623102
C      1.112708    1.218390    0.133060
C     -3.666813    0.875263   -0.659901
C     -0.154626    1.794108   -0.497440
C     -2.654545    1.596382   -0.241386
C      2.593121   -0.802142    0.098881
C     -2.242183   -1.115207   -0.585145
C      1.288314   -0.174883   -0.324276
C     -3.563804   -0.558035   -0.866089
C     -1.226724   -0.390733   -0.185731
C      0.126121   -0.999832    0.031920
C      3.695974   -0.141711   -0.596594
C     -1.361643    1.055470    0.063976
O     -4.522591   -1.265021   -1.252254
O      0.135742   -2.156190    0.495516
O      4.661876    0.299261    0.070236
O      3.717000    0.017103   -1.967326
C      3.059905    1.705047   -0.107409
C     -1.751946    2.702016   -0.288471
C     -0.835417   -1.678535   -1.302617
C      0.972353   -1.308289    0.979763
C     -3.721406   -0.610542    0.025371
C     -0.456968   -1.689975    1.080743
C     -2.728370   -1.456530    0.099349
C      2.692910    0.278644    0.214022
C     -2.119113    1.243692   -0.166382
C      1.269768    0.110595    0.677763
C     -3.506532    0.826023   -0.119305
C     -1.136350    0.377707   -0.080700
C      0.277499    0.831480   -0.100731
C      3.032717   -0.562945   -0.956461
C     -1.345102   -1.051659    0.039437
O     -4.455722    1.633371   -0.196565
O      0.492882    1.843476   -0.820013
O      3.824401   -1.530049   -0.840796
O      2.511741   -0.346577   -2.233579
H      3.793201   -0.430676    1.816809
H      2.835391   -1.920932    1.969060
H      2.005658   -0.319025    2.153056
H     -1.989615   -3.105932    0.157924
H     -2.828463   -2.965271   -1.407757
H     -1.072796   -2.746872   -1.413090
H     -2.227994    1.210112    2.083866
H     -0.634978    0.426141    2.042007
H     -0.815378    2.257559    1.791837
H      1.054514    1.245055    1.252621
H      1.935464    1.902748   -0.222397
H     -4.608109    1.418000   -0.848738
H     -0.208541    2.860101   -0.260665
H     -0.087085    1.607351   -1.575307
H     -2.774698    2.700636   -0.104630
H      2.559252   -1.866625   -0.274504
H      1.342568   -0.145018   -1.456599
H      4.210176    0.815732   -2.353871
H      2.747630    2.427945    0.663677
H      2.793810    2.005037   -1.140391
H      4.183286    1.737441   -0.095359
H     -1.479324    2.984933   -1.302586
H     -1.034510    2.995945    0.504187
H     -2.684707    3.265532   -0.045367
H     -1.128497   -2.734405   -1.326171
H      0.266004   -1.615648   -1.322278
H     -1.239979   -1.112302   -2.144433
H      1.452116   -1.598125    1.964085
H      1.506728   -1.951929    0.244114
H     -4.754766   -0.991359    0.073497
H     -0.881625   -1.434738    2.068347
H     -0.554737   -2.784732    0.962365
H     -2.994794   -2.521337    0.212496
H      3.395935   -0.024342    1.024737
H      1.260131    0.623090    1.699236
H      3.070050   -0.587957   -3.067835
