80

C      2.688239   -0.914439    1.015629
C     -1.661549    2.498281    1.608671
C     -0.886544   -1.983767    0.494759
C      0.804630   -0.733404   -1.370810
C     -3.836354   -0.288944   -0.002835
C     -0.708075   -0.676976   -1.622804
C     -2.866451   -1.043990   -0.468591
C      2.604091    0.258394    0.077574
C     -2.074881    1.255799    0.907247
C      1.252099    0.421383   -0.559147
C     -3.497119    0.920260    0.729054
C     -1.137309    0.471862    0.405817
C      0.297501    0.800967    0.519373
C      3.699664    0.226956   -0.914020
C     -1.447300   -0.790917   -0.315152
O     -4.414243    1.644152    1.188189
O      0.652636    1.410284    1.560122
O      4.520731   -0.721656   -0.855760
O      3.835021    1.194407   -1.878028
C      2.566424   -0.285404    1.637687
C     -1.589270    3.085537    0.017131
C     -1.196094   -1.403375    1.231483
C      0.911033   -1.192755   -0.678990
C     -3.790921   -0.067413   -0.535462
C     -0.525671   -1.408581   -1.089457
C     -2.858236   -0.999448   -0.427965
C      2.637370    0.325028    0.263567
C     -2.039381    1.662300   -0.111074
C      1.332417    0.203725   -0.485684
C     -3.426413    1.324235   -0.372711
C     -1.125370    0.720364   -0.028792
C      0.301736    1.028194    0.174414
C      3.736701   -0.257845   -0.519673
C     -1.461917   -0.713292   -0.139162
O     -4.330625    2.187833   -0.465083
O      0.552325    2.021674    0.930175
O      4.654413    0.465911   -0.950129
O      3.753007   -1.609884   -0.779256
O     -0.008560    0.371415   -0.000000
O     -0.004186    0.398192   -0.000000
H      3.743879   -0.979382    1.356348
H      2.432131   -1.879995    0.543535
H      2.013712   -0.730797    1.877511
H     -1.276550    2.296945    2.627075
H     -0.914701    3.043646    0.981012
H     -2.517603    3.190991    1.717932
H     -0.582311   -2.760356   -0.222363
H     -0.092759   -1.652081    1.167852
H     -1.705034   -2.390446    1.105464
H      1.259686   -0.678493   -2.393488
H      1.012486   -1.697105   -0.909412
H     -4.874351   -0.527917   -0.140275
H     -0.916846    0.352386   -2.018012
H     -1.024652   -1.457573   -2.321514
H     -3.185094   -1.934841   -1.015979
H      2.733293    1.170766    0.734152
H      1.347266    1.315706   -1.235056
H      4.722658    1.369896   -2.374069
H      1.742457    0.188475    2.209679
H      2.521631   -1.373993    1.647349
H      3.530976   -0.004828    2.151390
H     -1.449538    3.388402    1.065359
H     -0.680721    3.266091   -0.614543
H     -2.374401    3.734190   -0.415039
H     -2.055892   -1.266635    1.899313
H     -1.145826   -2.486078    0.990983
H     -0.236499   -1.066627    1.633997
H      1.113881   -1.792634    0.230222
H      1.533290   -1.638544   -1.510072
H     -4.807759   -0.367849   -0.743201
H     -0.725392   -2.498493   -1.042487
H     -0.726517   -1.083197   -2.120999
H     -3.145511   -2.055303   -0.563357
H      2.831031    1.406838    0.400963
H      1.528908    0.636519   -1.521019
H      4.444354   -2.073138   -1.369559
H      0.823706   -0.182816    0.000000
H     -0.815146   -0.188599   -0.000000
H      0.795426   -0.197573    0.000000
H     -0.791240   -0.200620   -0.000000
