46

C      4.105968   -0.256215    0.358262
C     -4.090067    0.863566   -0.078854
C      3.991462    0.388227   -1.027047
C     -4.050432   -0.415656   -0.853491
C      2.983969   -1.234128    0.477109
C     -2.704440    1.494201   -0.176005
C      2.787508    1.283798   -0.986316
C     -2.900191   -1.297410   -0.540867
C      0.236301    0.008770    1.640975
C     -0.618190   -1.560087   -0.135280
C      0.444356    1.303341   -0.432945
C      0.516694   -1.122905    0.693259
C     -0.431019    1.106670    0.807050
C      1.723916   -0.714011   -0.157663
C     -1.760161    0.486529    0.437605
N      1.718397    0.702052   -0.255128
N     -1.634081   -0.625061   -0.427598
Br     0.000000    0.000000    0.000000
Br     0.000000    0.000000    0.000000
Zn     0.000000    0.000000    0.000000
H      3.982339    0.500176    1.161771
H      5.060032   -0.787699    0.469115
H     -4.867058    1.507076   -0.501779
H     -4.276750    0.600165    1.001102
H      3.874292   -0.427587   -1.743210
H      4.940837    0.958033   -1.169657
H     -4.156252   -0.216743   -1.952719
H     -4.992403   -0.980625   -0.587455
H      3.235033   -2.234218    0.034265
H      2.788142   -1.429358    1.552025
H     -2.744823    2.446801    0.361054
H     -2.517213    1.634474   -1.264377
H      3.104676    2.217661   -0.436730
H      2.524053    1.618732   -2.009296
H     -2.841588   -2.087717   -1.320135
H     -3.071882   -1.828797    0.425973
H      1.215895    0.446806    1.966249
H     -0.413079   -0.252667    2.480326
H     -0.199057   -1.922998   -1.122008
H     -1.087688   -2.491145    0.301662
H     -0.090955    0.969814   -1.345945
H      0.580155    2.398023   -0.535192
H      0.851838   -1.990028    1.335958
H     -0.584893    2.025543    1.366255
H      1.592031   -1.235716   -1.150006
H     -2.225671    0.150314    1.388182
