52

C      4.570430   -0.616610    0.168263
C     -3.112794   -1.062482   -1.628618
C      1.604374    1.752992    0.503433
C     -2.997557    1.860964    0.807531
C      2.962442    1.128991    0.862565
C     -1.638865    1.536884    1.445946
C      1.450473    0.121737   -1.633432
C      2.125898   -1.149376    0.200078
C      0.606496    0.653660    0.675947
C     -3.537081    0.636957    0.125700
C      2.894524    0.333462   -1.411616
C     -0.310967   -1.244616   -0.503499
C     -1.375682   -0.407616    0.067720
C     -0.154921   -2.497630    0.276595
C     -1.949494    1.111372   -1.614940
C      3.201767   -0.075028   -0.031250
C     -2.500577    0.003313   -0.818207
C      0.927069   -0.428599   -0.338745
C     -0.788657    0.986830    0.356900
O     -3.748731   -0.327100    1.128561
O      3.659684    0.771096   -2.250769
O     -0.875322   -2.653086    1.293415
O      0.736971   -3.511897   -0.044056
O     -2.294627    1.463295   -2.750151
O     -0.954288    1.703823   -0.852855
O     -0.000933    0.379387   -0.000000
H      4.702127   -0.878459    1.222926
H      4.695136   -1.528040   -0.461484
H      5.303032    0.119171   -0.160688
H     -3.807765   -1.685774   -1.033460
H     -2.375409   -1.675088   -2.140175
H     -3.736618   -0.579318   -2.429940
H      1.701138    2.130870   -0.521534
H      1.451653    2.618167    1.166870
H     -3.696769    2.147374    1.594353
H     -2.878098    2.718971    0.104043
H      3.789080    1.823520    0.687918
H      2.939087    0.779636    1.921517
H     -1.865696    0.715445    2.184113
H     -1.229011    2.382381    1.983724
H      1.361860   -0.702905   -2.391633
H      0.921928    0.977661   -2.033349
H      2.042869   -1.403963    1.258909
H      2.430296   -1.993977   -0.452951
H      0.683593    0.255180    1.686212
H     -4.467454    0.846288   -0.395904
H     -0.424145   -1.482873   -1.580790
H     -1.791715   -0.841359    1.002546
H     -4.673010   -0.361573    1.432253
H      0.423325   -4.472674    0.017252
H     -0.818075   -0.190041   -0.000000
H      0.819007   -0.189346    0.000000
