58

C     -3.900822   -0.574708   -0.236105
C      3.794992    1.083220   -0.300460
C     -4.087525    0.931247   -0.201817
C      4.178807   -0.322507   -0.008636
C     -2.923146   -0.952054    0.853333
C      2.284939    1.247943   -0.518995
C     -2.753114    1.593600   -0.429938
C      3.147586   -1.085571    0.791078
C     -0.310232   -1.388172   -0.965825
C      0.792111   -0.758575    1.183957
C     -0.466939    1.077239   -0.991179
C     -0.519743   -1.206084    0.543655
C      0.358846   -0.086086   -1.427863
C     -1.605824   -0.186016    0.707077
C      1.753282   -0.096636   -0.907530
N     -1.712130    0.623653   -0.460418
N      1.841785   -0.964888    0.241342
C     -0.668941   -0.011407   -0.070207
C      0.807143    0.001210    0.058273
O      1.442212   -1.031722    0.366980
O      1.502776    1.166026   -0.164020
C     -0.655535   -0.079481    0.056595
C      0.812330    0.070623   -0.085034
O      1.275402    1.208973   -0.337247
O      1.729086   -0.959004    0.040207
Cu     0.000000    0.000000    0.000000
H     -4.825343   -1.124595   -0.055166
H     -3.546200   -0.840908   -1.248163
H      4.165847    1.820904    0.447854
H      4.260455    1.375514   -1.274408
H     -4.841987    1.208327   -0.983017
H     -4.428568    1.213851    0.813465
H      5.106364   -0.291784    0.630717
H      4.454904   -0.856580   -0.935146
H     -3.409628   -0.705645    1.819924
H     -2.777498   -2.040089    0.797028
H      1.896355    1.567158    0.491986
H      2.085413    2.042026   -1.262860
H     -2.803468    2.075195   -1.433098
H     -2.571236    2.412922    0.296291
H      3.445327   -2.172761    0.706892
H      3.215688   -0.864221    1.879270
H      0.428781   -2.199498   -1.066169
H     -1.265680   -1.561352   -1.451105
H      0.692424    0.289340    1.533470
H      1.026156   -1.358308    2.093796
H     -0.699970    1.710683   -1.887160
H      0.009710    1.741903   -0.263814
H     -0.795198   -2.159179    1.031242
H      0.363030   -0.162445   -2.554014
H     -1.473801    0.470053    1.589335
H      2.415247   -0.526118   -1.693991
H     -1.081439   -0.273015    0.946000
H     -1.072062    0.960599   -0.344424
H     -0.929689   -0.811692   -0.792602
H     -1.006700    0.473386    0.977172
H     -1.187252    0.416596   -0.794116
H     -0.967330   -1.131092    0.142423
