44

C     -0.163062   -1.222055   -0.340521
C      1.165018   -0.911744    0.308665
C     -1.227454   -0.378708    0.348692
C      1.488922    0.548315    0.067119
C     -0.981725    1.050422   -0.087135
C      0.352895    1.429219    0.448607
O     -0.088102   -0.743649   -1.659570
O      1.124552   -1.221398    1.653060
O     -2.469392   -0.849451    0.015225
O      2.679190    0.905886    0.658794
O     -1.985235    1.912039    0.260291
O      0.473871    2.410231    1.156051
C     -0.513097   -1.168000    0.131447
C     -1.438668   -0.035559    0.413711
C      0.673185   -0.835557   -0.688215
C     -0.614859    1.034004    1.131384
C      1.275701    0.512596   -0.446674
C      0.359587    1.495115    0.135564
O     -1.250291   -2.155397   -0.565179
O     -1.996751    0.511801   -0.731071
O      1.660883   -1.788481   -0.430383
O     -1.442667    2.034138    1.610331
O      1.843038    0.984143   -1.652484
O      0.404914    2.645292   -0.192905
H     -0.416623   -2.289970   -0.305758
H      1.935657   -1.507482   -0.222066
H     -1.104255   -0.397995    1.451404
H      1.591088    0.651999   -1.050393
H     -0.854647    1.005769   -1.208217
H     -0.333774   -1.443307   -2.304552
H      0.897535   -2.179239    1.726925
H     -3.093693   -0.176198   -0.343685
H      3.387496    1.035932   -0.037419
H     -2.378264    2.371383   -0.535515
H     -0.259914   -1.650310    1.111826
H     -2.229211   -0.393205    1.102368
H      0.454396   -0.929436   -1.790947
H     -0.095502    0.487174    1.965738
H      2.149890    0.418810    0.259062
H     -0.606964   -2.745471   -1.033062
H     -2.163618   -0.160570   -1.439265
H      1.905799   -1.660456    0.535751
H     -0.927996    2.563572    2.260115
H      2.812145    0.835796   -1.687110
