69

C     -0.117710   -2.633069   -0.168224
C      2.949601   -3.226730   -1.407170
C      3.978297    3.403653    1.458404
C      3.294924    3.557277    0.265725
C      4.112425    2.127103    1.954968
C      2.765219    2.458727   -0.404382
C      3.581138    1.037662    1.282084
C     -2.866923    0.202104    1.475123
C     -2.333623    0.795571   -0.725489
C     -4.579181    0.219738   -0.152462
C     -0.519948    0.813894    1.012052
C      0.937597   -1.812924   -0.850979
C      2.286325   -2.308981   -0.361690
C     -1.887302    0.604113    0.539799
C      2.885383    1.166521    0.071905
C     -4.180289    0.012242    1.156673
C     -3.666279    0.609760   -1.093870
C      2.390289   -0.015900   -0.639282
C      0.921289   -0.343867   -0.446444
C     -5.231766   -0.395099    2.110977
C     -4.166140    0.803846   -2.486152
F     -6.449871    0.195227    1.752326
F     -5.443810   -1.746670    1.993848
F     -4.965584   -0.016439    3.407761
F     -4.906911    2.005674   -2.501548
F     -5.129705   -0.180509   -2.773683
F     -3.200284    0.841889   -3.425948
N      3.140978   -1.166026   -0.254202
O      0.458085   -0.067157    0.779398
C     -3.121487    0.144998   -0.322495
C     -1.022728    0.339502    1.047276
C     -0.829639   -0.425235   -1.176127
C      0.352250    0.224437    1.216593
C      0.535373   -0.540167   -1.010136
C     -1.639058    0.017870   -0.148979
C      1.146506   -0.218295    0.184881
O      3.618244    1.060240   -0.086153
O      3.417818   -1.452439   -0.563730
O      3.224507   -0.689797    1.786794
S      2.871426   -0.376858    0.354802
H      0.007428   -3.677441   -0.569259
H      0.042935   -2.710384    0.898585
H     -1.146207   -2.325917   -0.480011
H      3.228912   -2.539691   -2.258513
H      2.266089   -4.012602   -1.668806
H      3.886458   -3.543066   -0.894154
H      4.394224    4.266471    1.989332
H      3.197039    4.559835   -0.105842
H      4.653391    1.988505    2.883545
H      2.225992    2.635999   -1.347423
H      3.683553    0.018007    1.656263
H     -2.558453    0.039179    2.507350
H     -1.693532    1.107676   -1.515287
H     -5.622574    0.073719   -0.424236
H     -0.571509    1.025947    2.145409
H     -0.129416    1.838891    0.647298
H      0.876727   -1.947127   -1.934106
H      2.219284   -2.803164    0.617680
H      2.530669    0.077927   -1.752849
H      0.389723    0.212402   -1.263416
H      4.063046   -1.226796   -0.701080
H     -3.306336    0.531351   -1.355109
H     -3.556372    0.870915    0.369276
H     -3.626665   -0.828862   -0.141189
H     -1.674115    0.685462    1.842000
H     -1.293080   -0.685064   -2.129521
H      0.775691    0.491387    2.176536
H      1.185177   -0.890626   -1.818984
H      2.942489    1.741179   -0.225734
