65

C      0.307952    2.665896   -1.629717
C     -2.080713    0.075922   -2.380487
C     -6.021818   -1.888308   -1.113884
C     -5.416847   -1.774495    1.291844
C     -4.099879   -3.119594   -0.216331
C     -0.777290    4.913799    2.112169
C      0.274099    4.024501    2.354813
C     -1.843818    4.399951    1.429851
C      0.261340    2.738320    1.949179
C     -1.866791    3.084438    1.013593
C      4.300357   -0.071606    0.451990
C      3.928394   -2.185621   -0.521137
C      6.110908   -1.599964    0.183922
C      2.043479   -0.706310   -0.305848
C     -0.209536    1.309980   -1.446701
C     -1.724578    1.165798   -1.334506
C      3.437582   -0.970003   -0.111749
C     -0.833575    2.207584    1.246300
C      5.651998   -0.361516    0.614049
C      5.266159   -2.525463   -0.384341
C     -0.787176    0.835514    0.790091
C      0.254817    0.534245   -0.238301
C     -2.926038   -0.415007    0.321192
C     -4.922643   -1.776215   -0.086285
C      6.555292    0.637113    1.225952
C      5.742892   -3.858585   -0.841326
F      5.930250    1.864065    1.253857
F      7.705661    0.729770    0.490506
F      6.787874    0.220830    2.536019
F      5.221534   -4.902193   -0.103055
F      7.124541   -3.931001   -0.708175
F      5.474665   -4.099039   -2.150597
N     -1.925557    0.492346   -0.058536
O     -2.916125   -0.971674    1.453015
O      1.559709    0.568209    0.049933
O     -4.001203   -0.795953   -0.489631
H      0.259069    3.395602   -0.835272
H     -0.215434    3.108236   -2.510727
H      1.370538    2.592553   -1.955760
H     -3.073797    0.221707   -2.807930
H     -1.903535   -0.903585   -1.936914
H     -1.338440    0.188620   -3.225568
H     -6.777235   -2.603859   -0.714244
H     -6.530125   -0.885863   -1.251368
H     -5.639496   -2.212632   -2.085895
H     -6.338880   -2.417000    1.322417
H     -5.770102   -0.803259    1.711759
H     -4.739947   -2.293660    2.025639
H     -3.680046   -3.155471   -1.240305
H     -4.783195   -3.980586    0.001852
H     -3.291209   -3.109548    0.506191
H     -0.720666    5.937986    2.436462
H      1.126066    4.432844    2.912062
H     -2.652768    5.074995    1.222280
H      1.088209    2.031012    2.146834
H     -2.759038    2.782472    0.514126
H      3.949876    0.897194    0.801525
H      3.294207   -2.947345   -0.970510
H      7.147439   -1.824071    0.298449
H      1.718664   -0.951216   -1.362944
H      1.465021   -1.436745    0.357360
H      0.156053    0.699092   -2.336592
H     -2.299551    2.053923   -1.510644
H     -0.650708    0.146679    1.619246
H      0.003111   -0.553809   -0.549511
