65

C     -1.586201   -1.685592    0.946673
C      1.057707   -2.103579   -0.546935
C      4.549648   -3.231068   -1.150452
C      5.428412   -0.974474   -1.322513
C      5.596312   -2.186721    0.832093
C      1.256791    4.882482   -0.225845
C      1.661200    3.819887   -0.965908
C      0.785916    4.713925    1.050967
C      1.592588    2.543704   -0.411280
C      0.725593    3.424606    1.582724
C     -4.235013    1.102098    0.662860
C     -3.351592    0.157480   -1.308271
C     -5.447191   -0.577997   -0.514334
C     -1.965741    1.876813   -0.169237
C     -0.369255   -0.900791    1.161269
C      0.605991   -0.811957    0.013674
C     -3.217886    1.052611   -0.247569
C      1.125394    2.336639    0.861118
C     -5.372753    0.289609    0.551835
C     -4.448985   -0.651022   -1.443373
C      0.961143    0.976026    1.446781
C     -0.574842    0.623012    1.288107
C      3.003445   -0.363153    0.597237
C      4.721127   -1.920465   -0.339024
C     -6.467931    0.370958    1.573679
C     -4.584094   -1.621575   -2.578602
F     -7.365533   -0.628516    1.260643
F     -5.937289    0.239375    2.823121
F     -7.147711    1.576473    1.440483
F     -4.255001   -2.866093   -2.005509
F     -3.599065   -1.379849   -3.517762
F     -5.836312   -1.709453   -3.068618
N      1.640066   -0.038980    0.708171
O      3.944159    0.317879    1.144441
O     -0.869868    1.145550    0.089145
O      3.453455   -1.449307   -0.112599
H     -1.780711   -1.912418   -0.120097
H     -1.548098   -2.688906    1.456503
H     -2.470761   -1.179372    1.394978
H      1.651603   -1.890334   -1.462982
H      1.536348   -2.812006    0.144877
H      0.125908   -2.639865   -0.929922
H      5.443335   -3.859109   -1.096754
H      3.683555   -3.800825   -0.734931
H      4.322185   -3.014500   -2.213680
H      6.374355   -1.455959   -1.686907
H      4.732199   -0.860184   -2.169866
H      5.555954   -0.022620   -0.823732
H      6.397019   -1.437044    0.946025
H      6.138915   -3.157917    0.628786
H      5.030207   -2.377811    1.738730
H      1.298772    5.885970   -0.651464
H      2.020870    3.948977   -1.965046
H      0.479431    5.588409    1.611069
H      1.928546    1.738435   -1.027726
H      0.331872    3.385560    2.600838
H     -4.188479    1.778907    1.500756
H     -2.565784    0.099017   -2.053605
H     -6.346399   -1.214301   -0.595223
H     -2.127139    2.687168    0.617093
H     -1.847652    2.453314   -1.115860
H      0.229461   -1.266507    2.032780
H      0.137728   -0.189478   -0.788909
H      1.135991    1.016674    2.514589
H     -1.155913    0.848195    2.166951
