61

C      3.339434   -1.746147   -0.332790
C      4.555266   -0.222274    1.120385
C      2.221196    6.128973   -0.173659
C     -0.626944   -3.038847    0.255128
C     -5.389506   -0.831702   -1.413309
C     -5.227289   -1.824582   -0.246184
C      1.357611    4.069606    0.990781
C      1.738703    4.031953   -1.362281
C      0.940312    2.758588    0.939939
C      1.311993    2.707116   -1.384031
C     -3.969391   -0.279689   -1.648135
C      2.232288   -1.542777    2.499848
C     -1.358497    0.292874   -0.653415
C      3.198662   -0.483523    0.448190
C      1.763888    4.720320   -0.175522
C     -1.642308   -1.943109    0.475133
C      0.909505    2.057508   -0.238210
C      2.095371   -0.451126    1.444044
C     -3.877911   -1.457049    0.242676
C     -1.850797   -1.092847   -0.757832
C     -3.029078   -2.556894    0.767794
N      0.782554   -0.349280    0.962003
N     -3.204439   -1.281723   -1.062080
O      3.510712   -1.639620    2.971751
O     -3.143516   -3.670061   -0.030558
O      1.197629   -0.280984   -1.425760
S      0.384510    0.384849   -0.349543
H      2.491106   -2.424691   -0.324883
H      4.205592   -2.358045    0.064696
H      3.635277   -1.516961   -1.379661
H      5.050962   -1.216366    1.282440
H      5.151503    0.428691    0.472126
H      4.413286    0.320143    2.078367
H      2.559394    6.432932    0.837610
H      1.416492    6.827555   -0.547838
H      3.074054    6.204326   -0.875136
H     -1.203889   -3.912425   -0.153247
H      0.132908   -2.775391   -0.486410
H     -0.217661   -3.386123    1.218798
H     -6.084040   -0.045634   -1.119695
H     -5.656915   -1.366922   -2.348386
H     -5.176334   -2.874372   -0.639555
H     -6.043878   -1.700339    0.477168
H      1.388939    4.638437    1.910116
H      2.051540    4.535499   -2.254976
H      0.630396    2.270057    1.845069
H      1.291222    2.165014   -2.313403
H     -3.923682    0.670440   -1.067714
H     -3.789889   -0.103470   -2.715246
H      1.584080   -1.211364    3.356070
H      1.798801   -2.502673    2.160771
H     -1.843184    0.841611    0.209639
H     -1.586307    0.926567   -1.533664
H      3.063385    0.388657   -0.254344
H     -1.331952   -1.321908    1.338027
H      2.264027    0.501103    2.047711
H     -3.835171   -0.533155    0.837150
H     -1.249857   -1.595826   -1.574045
H     -3.142397   -2.762760    1.839468
H      3.815270   -2.580608    2.827622
H     -3.153042   -3.421551   -0.966003
