186

C     -6.158142   -3.578376    0.255766
C     -6.131715   -1.540276   -1.013517
C     -1.290881    2.987191    1.451913
C     -3.528373    2.497098    0.687071
C     -2.286612    4.488015   -0.183994
C      6.749547    1.466972   -1.583084
C      5.908378   -0.260966    0.021062
C     -2.077583   -5.091736    1.170637
C      2.538955   -3.623698    1.952976
C     -2.574306    2.010752   -2.552947
C      0.054955    3.073423   -1.664726
C     -4.208278   -2.142899    0.376942
C      3.168839    0.017178   -1.353331
C      4.193624    2.244394   -1.630326
C     -0.055092   -3.112632    1.065014
C      3.275864    1.683198    1.878229
C     -5.180053   -2.690175   -0.594817
C      4.411069    0.719697   -1.847726
C      2.939532    0.186184    0.078095
C      3.639066    1.365692    0.654919
C      4.695274    1.996155   -0.238371
C     -3.094691   -1.316458   -0.098714
C     -1.331245   -2.833051    0.619006
C      0.902186   -2.132209    0.987158
C     -1.661762   -1.598325    0.099474
C      0.641495   -0.877152    0.477945
C     -0.674687   -0.591039    0.012291
C      1.608640    0.134405    0.682278
C     -2.224820    3.043078    0.245286
C      5.530090    0.861863   -0.866786
O     -3.401476   -0.283300   -0.711150
O      2.594915   -0.589386    3.133298
O      0.929096    1.273410    3.073102
O     -2.287703   -3.813276    0.685987
O      2.208635   -2.361460    1.425031
O     -0.985213    0.560012   -0.479940
S      2.056423    0.535060    2.373352
Si    -1.388712    1.985572   -1.094088
C     -5.072424   -2.670825   -1.034614
C     -6.300134   -1.214641    0.559408
C     -1.111159    4.132363   -0.731004
C     -3.041517    4.203340    0.793993
C     -2.976935    2.674369   -1.166692
C      7.074028    0.582615    0.277742
C      5.039235    2.013080    0.810370
C     -2.515856   -5.038458    0.304019
C      2.046827   -4.398734   -1.420985
C     -2.575157    1.732478    2.440320
C      0.042218    3.015422    1.961223
C     -3.987308   -0.528472   -0.196579
C      3.425445   -0.352280    0.838136
C      5.242682   -1.071810   -0.723169
C     -0.393473   -3.317774   -0.347745
C      3.079380    1.057067   -2.502965
C     -5.213058   -1.283454   -0.505430
C      4.901377   -0.523304    0.641116
C      2.715524    0.368741   -0.258132
C      3.691228    0.666558   -1.384280
C      5.110746    0.411782   -1.185802
C     -3.047460   -1.025188    0.794109
C     -1.547738   -2.800711    0.188570
C      0.640873   -2.500040   -0.656872
C     -1.660617   -1.423356    0.415664
C      0.583801   -1.093899   -0.448647
C     -0.618364   -0.589598    0.110726
C      1.720378   -0.465287   -0.975384
C     -2.136496    3.255430   -0.061590
C      5.567294    0.766891    0.194742
O     -3.318260   -1.148090    2.010430
O      0.432218    0.745037   -3.089006
O      1.307563    2.248487   -1.262713
O     -2.609967   -3.646093    0.523979
O      1.817108   -3.055114   -1.189324
O     -0.650156    0.724999    0.335132
S      1.356271    0.991492   -2.042682
Si    -1.362807    2.011063    1.044459
C     -1.173796    1.398613    0.268254
C     -0.219511   -0.638898    1.287602
C     -0.757652   -0.572103   -1.084937
C      2.037944   -0.117227   -0.437159
C     -0.189688    0.238942    0.083417
O      1.019138    0.772198   -0.231810
H     -6.926507   -2.961601    0.736552
H     -5.551459   -4.069939    1.059296
H     -6.544573   -4.384433   -0.389367
H     -5.618510   -0.619052   -1.237898
H     -6.820551   -1.930493   -1.784741
H     -6.805128   -1.305826   -0.135936
H     -1.510016    2.083641    2.073097
H     -1.341448    3.933898    2.007194
H     -0.277899    2.893020    1.040102
H     -4.213293    2.294676   -0.171513
H     -3.342834    1.598339    1.312330
H     -3.991670    3.233981    1.370063
H     -3.123969    4.940935    0.395380
H     -1.356403    4.992745    0.122086
H     -2.522541    4.573293   -1.256262
H      6.870369    2.541363   -1.356001
H      7.654664    0.919955   -1.192858
H      6.734374    1.298285   -2.665613
H      7.058246   -0.310203    0.028790
H      5.597470   -1.261326   -0.249072
H      5.703792    0.031195    1.087102
H     -1.039333   -5.473496    1.191140
H     -2.614915   -5.862288    0.505061
H     -2.475049   -5.236355    2.220858
H      2.494968   -4.389400    1.149731
H      3.517027   -3.619414    2.487799
H      1.754716   -3.899180    2.684654
H     -2.349716    2.898647   -3.159761
H     -3.613570    2.127620   -2.183903
H     -2.449721    1.117134   -3.207684
H      0.751103    3.168979   -0.812102
H     -0.299338    4.079259   -1.933871
H      0.506964    2.650949   -2.584116
H     -3.893835   -2.846992    1.147820
H     -4.875578   -1.430045    1.054222
H      3.318393   -1.061545   -1.669354
H      2.322040    0.368148   -1.952966
H      4.943914    2.782601   -2.251117
H      3.162669    2.574624   -1.766706
H      0.204611   -4.073968    1.470170
H      3.646412    2.488326    2.464362
H     -4.830676   -3.196641   -1.463567
H      4.652875    0.445308   -2.875951
H      3.577752   -0.675645    0.621245
H      5.297919    2.768006    0.235659
H      1.113015    1.109978    0.342332
H     -4.096549   -2.759342   -1.576889
H     -5.200702   -3.397038   -0.217993
H     -5.884992   -2.833354   -1.815472
H     -6.608779   -0.170570    0.653679
H     -6.070065   -1.742566    1.479133
H     -7.190059   -1.751564    0.104530
H     -1.554027    5.139019   -0.990316
H     -0.180362    4.271012   -0.195028
H     -0.871251    3.716222   -1.754653
H     -3.269761    5.047871    0.134186
H     -3.876126    3.597020    1.121997
H     -2.352545    4.534316    1.603374
H     -2.647149    1.690238   -1.524136
H     -2.939681    3.383996   -2.066448
H     -4.059246    2.637305   -0.852601
H      7.332676   -0.230233    0.964959
H      7.491285    1.524544    0.683246
H      7.521991    0.360098   -0.717490
H      4.512743    1.844125    1.761192
H      5.933338    2.658182    1.052785
H      4.451729    2.636104    0.073170
H     -3.321489   -5.509130    0.920073
H     -1.529000   -5.394746    0.712561
H     -2.634779   -5.311614   -0.753353
H      1.256382   -4.902115   -1.955003
H      2.150374   -4.876624   -0.385998
H      3.067008   -4.461756   -1.911387
H     -2.199542    1.046685    3.217518
H     -3.606167    1.553421    2.095205
H     -2.645613    2.740602    2.950408
H      0.755723    3.287524    1.187357
H      0.462921    2.353854    2.734559
H     -0.458800    3.912524    2.344310
H     -3.425720   -0.358975   -1.168839
H     -4.330001    0.521545    0.073980
H      3.030419   -1.379279    1.006799
H      3.284542    0.179476    1.802774
H      4.498549   -1.714988   -1.212567
H      6.297537   -1.341497   -0.880582
H     -0.305994   -4.407868   -0.524385
H      3.545044    1.333172   -3.416156
H     -5.701381   -0.667885   -1.376660
H      5.404531   -1.039340    1.480809
H      2.252196    1.282924    0.104123
H      5.789640    0.637451   -2.021598
H      2.265838   -1.092831   -1.712173
H     -1.074946    2.013220   -0.654571
H     -0.880331    2.037770    1.125185
H     -2.204220    1.000611    0.393287
H     -1.255988   -1.080433    1.345125
H      0.468000   -1.489035    1.143091
H     -0.031095   -0.117529    2.230566
H     -0.190508   -1.495332   -1.252429
H     -1.801246   -0.860740   -0.815826
H     -0.823254    0.039296   -2.006430
H      2.248994   -0.755812    0.467360
H      2.975466    0.462410   -0.602842
H      1.852693   -0.835951   -1.257882
