52

C     -5.035485    1.403356   -1.022706
C     -0.300060   -3.294376   -0.391044
C     -3.797060    1.255632   -1.838982
C     -4.617786    1.393939    0.437095
C      1.149560   -3.187132    0.028507
C     -1.141426   -2.294511    0.339073
C      3.906458    2.521575    0.355560
C      4.879226    3.098680   -0.466340
C     -2.878520    0.152986   -1.445380
C     -3.983895    0.038310    0.717195
C      1.344528   -2.078091    1.052977
C      4.648337    0.331737   -0.135619
C      2.746469    0.574822    1.413343
C     -1.572386    0.064925    0.590934
C      3.786857    1.164238    0.522559
C     -0.569317   -0.902250    0.009255
C      5.724693    2.223657   -1.109740
C      5.617608    0.861541   -0.951960
C      1.447076    0.385370    0.774037
Cl     6.984664    2.871561   -2.176110
Cl     6.753111   -0.185706   -1.820675
N     -2.838036   -0.202950   -0.074799
N      0.741757   -0.836327    0.606495
O      0.873900    1.439275    0.311794
Cl     0.683255    0.000000    0.000000
H     -5.820934    0.673706   -1.236971
H     -5.452250    2.420842   -1.222123
H     -0.656139   -4.329874   -0.225707
H     -0.335403   -3.100243   -1.485701
H     -4.122325    1.074470   -2.896794
H     -3.252936    2.224254   -1.862272
H     -5.491920    1.515105    1.076193
H     -3.821433    2.142844    0.561123
H      1.487180   -4.124111    0.504308
H      1.823205   -2.969088   -0.812404
H     -1.024231   -2.458718    1.419976
H     -2.195798   -2.374455    0.003017
H      3.242509    3.217588    0.857326
H      4.945218    4.179476   -0.574510
H     -1.849017    0.477829   -1.748205
H     -3.108782   -0.750259   -2.058818
H     -3.667916    0.084736    1.799407
H     -4.734290   -0.774264    0.653914
H      2.465683   -1.976556    1.106052
H      0.908301   -2.361269    2.028943
H      4.584686   -0.762001   -0.028347
H      2.605953    1.341332    2.247953
H      3.081673   -0.325792    1.927182
H     -1.351532    1.118231    0.426637
H     -1.704086   -0.182280    1.653070
H     -0.425689   -0.781760   -1.072247
H     -0.683255    0.000000    0.000000
