44

C      4.780397    0.642028   -0.955863
C      3.610821    0.899984    1.148512
C     -3.562021   -3.268908   -0.119092
C     -2.313489   -3.783430    0.111489
C     -3.714127   -1.923716   -0.361269
C     -1.242037   -2.928366    0.092402
C     -1.317120    3.457491    1.582907
C     -0.488400    2.436107    1.162420
C     -3.024551    0.304169   -0.652146
C     -3.131210    2.356164    0.539436
C      0.838431   -1.134189   -1.328737
C      3.028686   -0.815061   -0.341396
C     -2.604839   -1.073313   -0.374630
C     -2.308330    1.335362    0.118838
C     -2.650214    3.431260    1.277037
C      1.884259   -0.084572   -1.005884
C     -1.337205   -1.567287   -0.145777
C     -0.948795    1.365385    0.432958
C     -0.005927   -0.983363   -0.088460
Br    -3.808426    4.837075    1.852473
N      4.083761    0.032567    0.124234
N      0.058718    0.421671    0.106962
O      1.342033    0.791449   -0.081359
H      4.945763    1.725252   -0.691413
H      4.277552    0.559533   -1.942689
H      5.787984    0.164608   -1.100677
H      4.457470    1.069338    1.860646
H      2.761418    0.476541    1.721286
H      3.270503    1.886027    0.724471
H     -4.408399   -3.938257   -0.104530
H     -2.198657   -4.862198    0.306684
H     -4.716119   -1.518072   -0.545363
H     -0.254422   -3.376272    0.281317
H     -0.927724    4.286664    2.158108
H      0.575984    2.452580    1.399563
H     -4.112756    0.404537   -0.382018
H     -3.017206    0.527990   -1.759634
H     -4.190213    2.344236    0.301873
H      0.313665   -0.835284   -2.256289
H      1.285448   -2.144699   -1.416553
H      3.490376   -1.569244   -1.013551
H      2.671643   -1.405835    0.542344
H      2.218027    0.452886   -1.917968
H      0.599247   -1.448840    0.739337
