54

C     -3.365360    1.444816   -3.329595
C     -4.577699    1.325262   -1.258215
C     -4.317622   -2.199248    0.620386
C     -3.669837   -1.741251    1.882382
C      5.388050    2.605895    0.359350
C      4.455265    2.103280    1.444282
C     -3.598371   -1.748995   -0.619955
C      6.519153    1.592144    0.242048
C      2.750826   -1.564066    0.178691
C      4.029986   -1.261655   -0.233146
C     -2.162461   -1.666027    1.802271
C      2.569382    0.465489    1.390167
C      0.628306   -1.111015    1.394607
C     -2.417579    0.293781   -1.446337
C      1.997706   -0.717977    0.991017
C      3.857095    0.811476    0.998574
C     -2.814346   -0.493024   -0.244439
C      4.562073   -0.059386    0.194419
C      5.924388    0.312749   -0.215770
C     -0.387982   -0.626280    0.415734
N     -3.634607    0.678483   -2.136389
N     -1.755499   -0.900139    0.617834
O      6.551656   -0.492328   -0.961514
O      0.026630    0.027734   -0.582721
Cl     0.685391    0.000000    0.000000
H     -3.906486    0.940615   -4.163478
H     -2.308682    1.621135   -3.523995
H     -3.875600    2.441267   -3.203028
H     -5.231848    2.023967   -1.849585
H     -5.180895    0.534698   -0.769815
H     -4.105112    1.953309   -0.486339
H     -4.446783   -3.294671    0.560042
H     -5.356580   -1.771751    0.557112
H     -3.923998   -2.443678    2.683597
H     -4.061969   -0.728695    2.166706
H      4.873315    2.605544   -0.627627
H      5.768260    3.614098    0.599954
H      3.686617    2.858629    1.685554
H      5.067331    1.902776    2.357508
H     -2.847123   -2.547572   -0.857552
H     -4.299671   -1.589512   -1.443081
H      7.060453    1.464187    1.199489
H      7.273239    1.948179   -0.506757
H      2.306625   -2.509057   -0.145855
H      4.621325   -1.899610   -0.856172
H     -1.834736   -1.054873    2.691701
H     -1.669103   -2.636340    1.866223
H      2.026454    1.167035    2.027086
H      0.430984   -0.592953    2.371529
H      0.533769   -2.188866    1.600835
H     -1.718518   -0.243717   -2.106672
H     -1.917022    1.218796   -1.091404
H     -3.523400    0.127342    0.348749
H     -0.685391    0.000000    0.000000
