52

C     -1.384807    3.239191   -0.701640
C     -0.000484    3.515765   -0.176438
C     -4.736122   -1.828940   -0.306462
C     -3.574177   -2.532633   -1.015814
C     -1.370587    1.955819   -1.498672
C      3.519105   -1.564419    1.826602
C      4.422557   -2.578866    1.698554
C     -3.963963   -0.804690    0.515246
C     -2.675645   -1.372793   -1.332855
C      0.344208    2.421290    0.812572
C      4.466080   -0.466433   -0.068614
C      2.576392    0.627504    1.036749
C     -1.887355    0.212401    0.225700
C      3.535648   -0.501978    0.943460
C     -0.842956    0.793519   -0.697160
C      5.365060   -2.568305    0.694080
C      5.368578   -1.503741   -0.177029
C      1.384974    0.273216    0.211406
Cl     6.534420   -3.883748    0.530298
Cl     6.570539   -1.483666   -1.463403
N     -3.047474   -0.277244   -0.491558
N      0.294739    1.162768    0.108621
O      1.327375   -0.819939   -0.406901
Cl     0.690070    0.000000    0.000000
O     -0.003147    0.384937   -0.000000
H     -2.095816    3.218065    0.123255
H     -1.614349    4.062455   -1.432034
H      0.745008    3.525441   -0.974504
H      0.035399    4.507129    0.318573
H     -5.327549   -2.510034    0.304699
H     -5.307980   -1.312624   -1.102219
H     -3.905285   -3.098236   -1.888027
H     -3.114384   -3.185866   -0.224096
H     -0.677646    2.105817   -2.358150
H     -2.350331    1.700383   -1.900860
H      2.755769   -1.545867    2.618036
H      4.385979   -3.387284    2.395894
H     -4.628872   -0.011376    0.907545
H     -3.429561   -1.357606    1.315251
H     -1.629239   -1.699310   -1.079794
H     -2.672905   -1.108878   -2.415338
H     -0.451354    2.462856    1.610047
H      1.346816    2.583672    1.234849
H      4.476766    0.366427   -0.758516
H      3.013465    1.572953    0.642603
H      2.341882    0.781203    2.092438
H     -2.156764    0.972951    0.984668
H     -1.414718   -0.656292    0.732681
H     -0.550436   -0.000058   -1.413742
H     -0.690070    0.000000    0.000000
H     -0.803680   -0.193628   -0.000000
H      0.806827   -0.191309    0.000000
