53

C     -5.289231   -0.830011   -1.194194
C      0.693004   -1.787963   -3.029695
C     -2.332903    0.935561    4.201875
C     -2.775927   -0.047115    3.354998
C     -1.421695    1.829207    3.687505
C     -2.313204   -0.122470    2.034549
C     -0.973964    1.751726    2.396356
C     -3.230515   -1.457465   -2.514348
C     -1.877462   -1.413935   -2.754936
C      5.168158   -0.230267    0.480926
C      6.509825   -0.294268    0.751037
C     -3.049202   -0.041963   -0.612824
C      0.592069    1.720435   -1.492456
C      2.417489    0.121547   -1.270267
C      4.676119   -0.585070    2.744471
C     -3.821689   -0.784175   -1.460897
C     -1.416949    0.750327    1.506551
C      4.248569   -0.366192    1.418908
C      1.166878    0.474819   -2.060752
C     -1.683436    0.001220   -0.847596
C     -1.101116   -0.680745   -1.920115
C     -0.960320    0.783375    0.144697
C      2.771605   -0.294953    1.150887
N      0.029429    1.594625   -0.163848
N      2.205653   -0.103924    0.082347
N      0.289089   -0.613767   -2.313862
O      1.918864   -0.472483    2.279003
S      6.506182   -0.582969    2.554523
Cl     0.685441    0.000000    0.000000
H     -5.589449    0.165325   -0.807313
H     -5.464574   -1.575386   -0.373372
H     -5.876810   -1.042214   -2.089655
H      1.773649   -2.019779   -2.911131
H      0.195356   -2.711796   -2.605556
H      0.525956   -1.715902   -4.123147
H     -2.675012    1.018591    5.232523
H     -3.488525   -0.761185    3.726993
H     -1.051429    2.611703    4.321471
H     -2.688217   -0.985361    1.482623
H     -0.254168    2.448671    1.972913
H     -3.868342   -2.047526   -3.181094
H     -1.422817   -1.938826   -3.572453
H      4.901751   -0.055448   -0.597802
H      7.467958   -0.221966    0.205435
H     -3.419564    0.566527    0.197433
H      1.411329    2.462123   -1.396163
H     -0.155613    2.167828   -2.179618
H      3.039756    1.066561   -1.383697
H      3.015392   -0.647462   -1.811697
H      4.147551   -0.729000    3.694652
H      1.578481    0.777650   -3.075008
H      0.952019   -0.764886    2.120819
H     -0.685441    0.000000    0.000000
