35

C      5.182509   -0.941173   -0.202705
C     -3.972665   -0.188647   -0.847250
C     -3.201384   -0.197313    1.462359
C      4.107904   -0.603428   -1.215354
C      1.099134    0.602716    0.804454
C     -1.060530    1.681457    0.431441
C     -1.617070   -0.886291   -0.266087
C     -0.002881    0.800779   -0.196639
C      2.197733   -0.253276    0.309944
C     -2.748872    0.039573    0.018156
N     -2.365204    1.431099   -0.164425
O      2.353609   -1.387860    0.832866
O      3.047852    0.123083   -0.680448
O     -0.485969   -0.329174   -0.786858
Cl     0.692410    0.000000    0.000000
H      6.085389   -1.262134   -0.801057
H      4.936412   -1.761553    0.467765
H      5.512472   -0.042274    0.364995
H     -4.833812    0.297653   -0.327515
H     -4.177445   -1.257648   -1.040928
H     -3.868982    0.361853   -1.808941
H     -3.707469   -1.171983    1.481398
H     -2.286972   -0.223583    2.083708
H     -3.921998    0.580716    1.795478
H      3.822812   -1.558194   -1.711536
H      4.599427    0.021634   -2.003470
H      1.541558    1.609638    1.039349
H      0.735032    0.209005    1.771140
H     -0.831978    2.749237    0.257642
H     -1.132272    1.528441    1.516884
H     -1.308161   -1.461332    0.650151
H     -1.953227   -1.671895   -0.985146
H      0.473270    1.407437   -1.034935
H     -2.218221    1.538802   -1.214439
H     -0.692410    0.000000    0.000000
