46

C      3.977999    0.387431   -0.420101
C     -4.011229   -0.679455    0.426860
C      4.040357   -1.069321   -0.110605
C     -3.923652    0.801544    0.270994
C      2.903116    1.121118    0.311576
C     -2.620903   -1.306071    0.266802
C      2.731146   -1.671440    0.302625
C     -2.681537    1.407982    0.862030
C      0.142263    0.225705   -1.865410
C     -0.554906    1.746030   -0.081404
C      0.358590   -1.533464   -0.099390
C      0.643626    1.169684   -0.767918
C     -0.566991   -0.911460   -1.115843
C      1.568247    0.435961    0.193058
C     -1.787699   -0.281772   -0.476133
N      1.639575   -0.923160   -0.219800
N     -1.467414    0.775535    0.434456
Cl     0.000000    0.000000    0.000000
Cl     0.000000    0.000000    0.000000
Cu     0.000000    0.000000    0.000000
H      3.909982    0.615427   -1.509791
H      4.959104    0.844494   -0.099886
H     -4.599889   -1.074380   -0.450410
H     -4.519330   -1.020534    1.331322
H      4.775180   -1.273551    0.707216
H      4.475925   -1.579791   -1.016086
H     -4.790710    1.243883    0.844095
H     -4.080246    1.151377   -0.776602
H      3.222692    1.273004    1.368214
H      2.802150    2.130856   -0.146140
H     -2.211331   -1.422670    1.310139
H     -2.658376   -2.280291   -0.218568
H      2.684821   -2.692490   -0.144915
H      2.670367   -1.843353    1.410280
H     -2.800136    1.427475    1.972474
H     -2.677861    2.487138    0.555602
H      0.989610   -0.220532   -2.387219
H     -0.573138    0.768810   -2.476367
H     -1.051635    2.434517   -0.790755
H     -0.219773    2.383470    0.773552
H     -0.105136   -1.333958    0.911800
H      0.428224   -2.637997   -0.195067
H      1.216237    2.014571   -1.206806
H     -0.907128   -1.699584   -1.787551
H      1.084395    0.509087    1.202664
H     -2.414585    0.100177   -1.308324
