62

C      3.909962   -0.612190   -2.049565
C     -4.969379    0.440550    1.427456
C      6.974739    0.257899    0.783350
C     -6.024735   -0.212270   -2.599099
C      2.616643   -0.601008   -1.220451
C     -3.787627    1.342496    1.537341
C      5.883899   -0.485937    1.157186
C     -4.694618   -0.130766   -2.229786
C      6.086547    0.443060   -1.449064
C     -6.702444    0.134655   -0.340407
C      1.215635   -0.708607    1.539528
C     -0.223384    0.832459    0.318455
C      4.997571   -0.293536   -1.093286
C     -5.352811    0.214014    0.014537
C      7.070319    0.716477   -0.511174
C     -7.027455   -0.079947   -1.656419
C      1.417793   -1.836473    0.590962
C     -1.435723    0.842258    1.223481
C      4.896936   -0.760842    0.219354
C     -4.341098    0.084188   -0.913664
C      2.704337   -1.691049   -0.214902
C     -2.718723    1.132033    0.520005
F      8.130397    1.452813   -0.910479
F     -8.352871   -0.150208   -1.960188
N      0.989399    0.573289    0.993387
O      0.310472   -2.015198   -0.220679
O     -1.237326    1.849971    2.178985
O      3.809803   -1.512930    0.625349
O     -3.040451    0.177177   -0.474256
Br     0.763489    0.000000    0.000000
O     -0.004066    0.394377   -0.000000
O     -0.000062    0.403490   -0.000000
H      3.837306    0.130789   -2.876217
H      4.036342   -1.640305   -2.430913
H     -4.809289   -0.548848    1.940532
H     -5.825918    0.943646    1.964953
H      7.745240    0.466414    1.540875
H     -6.335764   -0.380782   -3.621654
H      2.634558    0.384862   -0.701242
H      1.732902   -0.691251   -1.878940
H     -3.386471    1.213276    2.586656
H     -4.126970    2.419423    1.524446
H      5.785915   -0.859960    2.180003
H     -3.935636   -0.235397   -2.969272
H      6.201566    0.825297   -2.463658
H     -7.422941    0.250363    0.461083
H      2.158835   -0.637427    2.163479
H      0.402766   -1.033772    2.257845
H     -0.106259    1.837438   -0.184658
H     -0.383531    0.132460   -0.519410
H      1.537846   -2.795245    1.156556
H     -1.512088   -0.118941    1.755093
H      2.846360   -2.682035   -0.715069
H     -2.548171    2.093391   -0.053075
H      1.341783    1.375242    1.520832
H      0.491612   -2.548086   -1.018410
H     -1.465802    2.697070    1.726589
H     -0.763489    0.000000    0.000000
H     -0.798324   -0.198734   -0.000000
H      0.802391   -0.195643    0.000000
H     -0.795794   -0.201826   -0.000000
H      0.795856   -0.201664    0.000000
