52

C     -7.476573    0.037600   -0.543350
C     -7.276875   -0.716668    0.592669
C      1.633328   -0.594450    0.669602
C      6.918802    0.242059    0.022033
C     -6.369463    0.491198   -1.222868
C     -5.988560   -0.987958    1.004353
C     -3.906052    0.738839   -1.587888
C     -2.612709    0.552536   -0.877082
C      0.581855   -0.757222    1.732229
C      1.837601    0.825842    0.228827
C      5.852927   -0.171284    0.976692
C      6.455816    0.919969   -1.219434
C     -1.218769   -1.170522    0.290100
C     -5.059019    0.219961   -0.810985
C     -2.561209   -0.813973   -0.240727
C     -4.869137   -0.533672    0.324268
C      4.118900    0.681093   -0.516026
N     -0.719920   -0.301601    1.310534
N      2.871244    0.818362   -0.788276
N      4.610494    0.523011    0.811520
N      5.076858    0.681090   -1.567096
O     -3.580457   -0.816822    0.753414
Br     0.764971    0.000000    0.000000
Br     0.764828    0.000000    0.000000
H     -8.474148    0.288148   -0.924334
H     -8.122524   -1.080993    1.136646
H      2.600599   -0.933965    1.136926
H      1.492508   -1.218518   -0.213054
H      7.517327   -0.660346   -0.287476
H      7.661608    0.908359    0.524339
H     -6.530622    1.091704   -2.127623
H     -5.788810   -1.584117    1.902038
H     -4.080343    1.851386   -1.669697
H     -3.896693    0.382480   -2.637455
H     -2.461632    1.302891   -0.072809
H     -1.778267    0.709777   -1.598256
H      0.917501   -0.197091    2.617869
H      0.529361   -1.841364    1.968334
H      0.909646    1.191997   -0.294722
H      2.099085    1.468373    1.094207
H      5.725419   -1.286882    0.925858
H      6.228015    0.014671    2.016843
H      6.550954    2.032602   -1.084259
H      7.062758    0.600314   -2.117462
H     -1.315836   -2.192327    0.753909
H     -0.518208   -1.235655   -0.550746
H     -2.835160   -1.560604   -1.012988
H     -0.632334    0.662783    0.926924
H      4.064071    0.907366    1.598474
H      4.756643    0.511625   -2.533353
H     -0.764971    0.000000    0.000000
H     -0.764828    0.000000    0.000000
