41

C      4.006090   -0.697734    1.154725
C     -1.951255   -0.840621    1.122186
C     -2.900822   -0.588598   -1.051244
C      0.274061    0.413961   -2.352783
C     -2.809014   -1.884273    1.380707
C     -3.768500   -1.626954   -0.820084
C      1.474394   -0.001510   -2.913720
C      1.268346    0.160656   -0.168081
C     -0.826994    2.646465    2.755770
C      0.307043    2.502674    0.917683
C     -1.992192   -0.193173   -0.084045
C      0.202801    0.484619   -0.978222
C     -3.715263   -2.267247    0.396087
C      2.544076   -0.326768   -2.101516
C      2.463720   -0.253159   -0.728397
C     -1.073486    0.926939   -0.365037
Cl    -4.818513   -3.609368    0.728183
N      0.297323    3.097585    2.127138
N     -1.480930    1.801013    1.949031
N      3.785594   -0.746752   -2.397467
N      4.432194   -0.921075   -1.256508
N      3.652119   -0.629024   -0.249131
N     -0.785650    1.717393    0.831223
Br     0.767439    0.000000    0.000000
O     -0.006035    0.364334   -0.000000
H      3.792305   -1.709643    1.590954
H      3.418253    0.042622    1.747328
H      5.094409   -0.519988    1.321315
H     -1.250251   -0.567857    1.924855
H     -2.956414   -0.089164   -2.025540
H     -0.572172    0.671337   -2.993402
H     -2.771796   -2.400747    2.351240
H     -4.498818   -1.971704   -1.550440
H      1.521720   -0.054164   -3.993691
H      1.226339    0.211725    0.917176
H     -1.068262    2.980671    3.757305
H      1.076295    2.639299    0.141671
H     -1.596749    1.602565   -1.085269
H     -0.767439    0.000000    0.000000
H      0.825888   -0.180177    0.000000
H     -0.819853   -0.184157   -0.000000
