78

C     -3.003710   -4.503491   -0.641439
C     -0.712320   -4.470768   -1.980688
C      4.397818    0.468216    1.831628
C      5.545803   -0.754204   -0.070263
C     -3.078654    5.502532   -1.056107
C     -5.228101    4.220998   -0.814688
C      0.062557   -3.505639    3.527973
C     -1.524859   -2.913821   -0.495615
C      3.919102    0.990799   -0.491093
C     -3.170981    2.983563   -0.832782
C     -1.227129   -1.866248    0.009995
C      3.311008    1.645597   -1.658933
C     -1.643794    2.884881   -0.881509
C      0.753939   -2.129709    1.595715
C     -0.683779   -1.040686    3.115714
C      1.708970   -1.794227   -1.160243
C     -1.987088   -4.507444   -1.266348
C      4.535871    0.331603    0.311914
C     -3.696122    4.223940   -0.924099
C      0.071067   -2.250443    2.717351
C      1.219022   -0.825484   -0.445267
C      0.667034   -0.830025    0.908912
C     -1.508129   -0.495419    1.960362
C      2.228418   -1.665930   -2.537779
C     -2.057013    0.837958    2.307255
C      1.111263    0.537565   -1.047875
C      2.564675   -0.298700   -2.988027
C     -1.635664    2.004538    1.499081
C     -0.854710   -0.604171    0.611457
C      2.119586    0.756370   -2.080527
C     -1.254024    1.843320    0.171865
C     -1.092255    0.457337   -0.365188
O      3.348937   -2.498719   -2.671688
O     -3.462355    0.777224    2.437287
O     -2.353444    0.141866   -0.968183
O      1.707953    0.689232   -3.374818
O     -0.341282    2.250585    1.162785
O     -0.228844    0.560757   -1.448093
H     -3.824990   -4.485000   -0.110208
H     -2.397642   -4.252842    0.597864
H      0.145167   -4.675163   -1.285195
H     -0.478659   -3.496997   -2.515572
H     -0.622030   -5.276014   -2.800418
H      5.324091    0.841484    2.253170
H      3.617465    1.265276    2.004300
H      4.086298   -0.469584    2.299637
H      6.497470   -0.221155   -0.226230
H      5.699958   -1.445693    0.763749
H      5.210752   -1.275322   -0.955933
H     -2.983546    6.091892   -0.116075
H     -2.068199    5.417326   -1.544253
H     -3.701170    6.211108   -1.711740
H     -5.602573    3.233784   -0.535007
H     -5.495375    4.945749   -0.020996
H     -5.649963    4.631010   -1.755958
H     -0.596357   -4.262344    2.995564
H     -0.427673   -3.252761    4.482706
H      1.068671   -3.893790    3.571104
H      3.216701    1.720390    0.406534
H     -3.763275    2.133401   -0.733198
H      3.018164    2.676090   -1.462744
H      4.100827    1.643457   -2.473726
H     -1.283771    3.867861   -0.476790
H     -1.270002    2.667436   -1.876041
H      1.325027   -2.999333    1.242606
H     -0.014834   -0.221837    3.528045
H     -1.382998   -1.282403    3.947588
H      1.725694   -2.811795   -0.726306
H      1.093463   -0.062273    1.531552
H     -2.376085   -1.189579    1.918433
H      1.463717   -2.138208   -3.236772
H     -1.731376    1.066553    3.381589
H      1.208894    1.335756   -0.271803
H      3.564003   -0.186578   -3.486875
H     -2.227547    2.935619    1.780726
H      3.110906   -3.328522   -3.175173
H     -3.874092    1.656176    2.661528
H     -2.233876   -0.266927   -1.837727
