45

C     -2.180504    2.398189   -0.835062
C      4.990746    0.091643   -0.770983
C      4.836720    1.162223    0.082201
C     -3.052488   -1.756502    0.977170
C      3.900743   -0.639455   -1.197671
C      3.558194    1.511423    0.520758
C      0.914191   -1.928743   -1.799596
C     -2.553816   -0.520646    1.628030
C     -2.472518   -2.047635   -0.380346
C     -0.478433   -2.319521   -1.470503
C     -0.885348    1.217441    1.710145
C     -2.644782    1.341358    0.101292
C      2.654902   -0.276368   -0.752572
C      1.398088   -0.787214   -0.986138
C      2.434026    0.802973    0.116152
C      0.369551    1.812275    1.187775
C      0.490004   -0.036006   -0.283886
C     -0.954652   -0.305401   -0.304357
C     -1.716814    0.384096    0.766860
N     -1.052584   -1.774083   -0.277120
N      1.137123    0.902122    0.362583
O     -3.831617    1.241203    0.344759
O      1.181409    2.144534    2.274471
H     -2.071000    3.381332   -0.351901
H     -2.973738    2.515705   -1.605155
H     -1.274064    2.057097   -1.360834
H      5.973095   -0.167032   -1.100446
H      5.690815    1.717608    0.402939
H     -2.876453   -2.679064    1.595961
H     -4.174575   -1.747172    0.834829
H      4.082899   -1.466602   -1.865089
H      3.394255    2.351416    1.195792
H      0.965162   -1.590523   -2.875193
H      1.662830   -2.739991   -1.707499
H     -2.008643   -0.838711    2.554740
H     -3.460315    0.017704    2.039397
H     -2.874474   -1.392089   -1.177373
H     -2.681680   -3.096707   -0.624847
H     -0.492898   -3.442061   -1.348910
H     -1.165081   -2.114677   -2.330600
H     -0.625417    0.583497    2.592540
H     -1.518962    2.036612    2.113229
H      0.256690    2.748061    0.605075
H     -1.315325   -0.040492   -1.320244
H      1.444737    1.288182    2.719628
