45

C     -3.830140    1.648451    0.956997
C      5.177429   -0.046637   -0.430280
C      4.857372    1.209888   -0.902987
C     -3.010628   -1.030879   -0.762001
C      4.200857   -0.894256    0.090870
C      3.541871    1.653712   -0.865985
C      1.335163   -2.307177    1.165698
C     -2.185135    0.193693   -1.082028
C     -2.213223   -2.092658   -0.047710
C      0.084223   -2.714017    0.416434
C     -0.985692    2.012162    0.123484
C     -2.699749    0.730866    1.209502
C      2.912751   -0.436430    0.117352
C      1.765608   -1.031452    0.561489
C      2.570682    0.828277   -0.355052
C      0.344186    2.088360   -0.508449
C      0.764289   -0.097769    0.340024
C     -0.625754   -0.408596    0.710021
C     -1.573164    0.640312    0.253649
N     -0.917479   -1.725405    0.322243
N      1.239071    1.000031   -0.201178
O     -2.707404    0.053043    2.210311
O      0.246430    2.247136   -1.909377
H     -4.823620    1.138081    1.020940
H     -3.783660    2.130572   -0.033582
H     -3.881148    2.470918    1.710327
H      6.200989   -0.393124   -0.458582
H      5.644227    1.861971   -1.309942
H     -3.479556   -1.414088   -1.702335
H     -3.858285   -0.749417   -0.103916
H      4.417579   -1.872992    0.464598
H      3.264135    2.645768   -1.234968
H      1.114828   -2.216775    2.247466
H      2.082532   -3.121168    0.988974
H     -2.881568    0.971199   -1.449076
H     -1.409449   -0.074883   -1.814220
H     -2.763205   -2.465455    0.864963
H     -2.176336   -2.978467   -0.726353
H     -0.350903   -3.653357    0.814687
H      0.442015   -2.994136   -0.619897
H     -0.965593    2.529940    1.118514
H     -1.705193    2.615082   -0.491962
H      0.853514    3.027265   -0.157082
H     -0.643045   -0.383096    1.842607
H      0.410179    1.405508   -2.384188
