86

C     -3.073683    1.886338    1.873811
C      5.132525    0.649006   -0.546065
C      4.661287    1.962699   -0.520665
C     -3.187992   -1.391770   -0.671810
C      4.236323   -0.416663   -0.407637
C      3.323965    2.255814   -0.361762
C      1.499835   -2.351804   -0.024846
C     -2.923601    0.057118   -0.585471
C     -2.094849   -2.278436   -0.198251
C      0.172790   -2.698483   -0.616397
C     -1.237279    1.769687   -0.407144
C     -2.115058    0.801505    1.588811
C      2.920262   -0.119260   -0.251437
C      1.795239   -0.901396   -0.089936
C      2.456761    1.195077   -0.227081
C      0.110192    2.196361    0.032266
C      0.750295   -0.060610    0.020390
C     -0.609045   -0.556379    0.223315
C     -1.689198    0.451293    0.175834
N     -0.818419   -1.689959   -0.652190
N      1.131117    1.210436   -0.061124
O     -1.663170    0.179398    2.535931
O      0.414006    3.327785    0.467566
C     -3.322479   -1.773124   -1.523362
C      5.251598   -0.442962   -0.325218
C      4.799033   -1.746629   -0.457296
C     -3.125257    1.109072    1.326703
C      4.287859    0.534800   -0.182978
C      3.452447   -2.082458   -0.450520
C      1.471388    2.374751    0.125512
C     -2.730790   -0.321669    1.134311
C     -2.082460    2.111383    0.941327
C      0.103995    2.682735    0.568887
C     -1.108814   -1.921391    0.357513
C     -2.360834   -0.699753   -1.240298
C      2.947617    0.212313   -0.174975
C      1.778115    0.946676   -0.055604
C      2.499326   -1.098693   -0.307948
C      0.167478   -2.179554   -0.339350
C      0.711371    0.094446   -0.118360
C     -0.676692    0.537925   -0.034798
C     -1.677652   -0.534117    0.077955
N     -0.733723    1.579750    0.991976
N      1.153648   -1.135488   -0.269267
O     -2.110150    0.092907   -2.126004
O      0.479096   -3.197508   -0.975484
H     -2.565109    2.737047    2.409337
H     -3.884611    1.531049    2.557725
H     -3.562912    2.310001    0.998386
H      6.177046    0.442283   -0.670771
H      5.390421    2.779048   -0.631966
H     -4.120701   -1.684480   -0.104009
H     -3.427792   -1.699802   -1.732805
H      4.535190   -1.442068   -0.418901
H      2.950002    3.272111   -0.340962
H      1.582306   -2.671450    1.034571
H      2.320653   -2.868072   -0.568859
H     -3.793667    0.562655   -0.116643
H     -2.879631    0.483411   -1.631217
H     -2.075526   -2.439685    0.903826
H     -2.168110   -3.276455   -0.682958
H     -0.204208   -3.595408   -0.084268
H      0.349787   -3.048837   -1.676201
H     -1.181210    1.595875   -1.522584
H     -1.995565    2.566225   -0.283399
H     -0.638669   -1.031207    1.265591
H     -4.216711   -1.373398   -2.071671
H     -2.876515   -2.583959   -2.168886
H     -3.728997   -2.288804   -0.634880
H      6.312550   -0.232689   -0.336655
H      5.542671   -2.533756   -0.570778
H     -3.391734    1.306891    2.390300
H     -4.038537    1.354698    0.741915
H      4.599627    1.567436   -0.076767
H      3.115575   -3.111616   -0.555430
H      2.254792    2.813459    0.808085
H      1.665900    2.872062   -0.861855
H     -3.636877   -0.891919    0.841154
H     -2.429370   -0.729257    2.122565
H     -2.105360    2.993816    1.624731
H     -2.282804    2.509707   -0.076750
H     -0.442963    3.307699   -0.197150
H      0.170411    3.369120    1.463246
H     -1.881286   -2.680561    0.127461
H     -0.944113   -1.938699    1.475294
H     -0.860378    1.126357   -0.986653
