47

C     -1.930463    1.789908   -1.692022
C      5.247898   -0.266006    0.173729
C      4.999023    1.029304    0.578214
C     -3.151609   -1.326161    1.002389
C      4.209600   -1.105718   -0.138050
C      3.696452    1.520761    0.681761
C      1.162115   -2.511568   -0.708017
C     -2.455184   -0.112424    1.540307
C     -2.298473   -2.229724    0.188211
C      0.056868   -2.784609    0.311555
C     -0.871113    1.668724    1.173743
C     -2.562273    1.091162   -0.543765
C      2.932012   -0.623646   -0.036473
C      1.731835   -1.210916   -0.273997
C      2.661618    0.683401    0.370877
C      0.488388    2.018937    0.710448
C      0.772208   -0.236581   -0.001984
C     -0.660862   -0.486263   -0.155339
C     -1.549326    0.546929    0.479400
N     -0.944810   -1.811354    0.276367
N      1.305559    0.880799    0.378000
O     -3.474366    1.934732    0.074475
O      0.518808    2.986160   -0.311964
H     -2.596334    1.628984   -2.591268
H     -1.907876    2.895998   -1.587340
H     -0.944124    1.391258   -2.004642
H      6.263709   -0.608549    0.106018
H      5.784636    1.735961    0.836951
H     -4.054841   -1.059610    0.403211
H     -3.535134   -1.892839    1.875798
H      4.339790   -2.143009   -0.464802
H      3.489627    2.521599    0.993682
H      0.659122   -2.418229   -1.689343
H      1.883236   -3.334993   -0.692436
H     -3.233865    0.640968    1.781684
H     -1.902369   -0.303035    2.475588
H     -2.590702   -2.288696   -0.879065
H     -2.355329   -3.274971    0.566378
H     -0.352391   -3.809324    0.183032
H      0.619438   -2.838336    1.293470
H     -1.509646    2.594745    1.051424
H     -0.852371    1.532877    2.297526
H     -3.164433    0.231378   -0.956492
H      1.023951    2.528460    1.568659
H     -0.875855   -0.509000   -1.286506
H     -4.320792    1.466879    0.267819
H      0.248649    3.865634    0.003409
