44

C      5.315232   -0.024184   -1.250201
C      5.316354    0.664900    0.097836
C     -4.552429    2.425180    0.366408
C     -4.591474    1.160333    0.914527
C     -3.450924    2.862634   -0.338885
C     -3.537180    0.306815    0.772165
C     -2.399870    2.009533   -0.479889
C      0.800787   -1.665517   -0.419803
C     -0.494674   -2.393174   -0.747130
C      1.584579    0.261067    0.881473
C     -2.420106    0.741685    0.060570
C      0.749588   -0.985546    0.937703
C     -1.609084   -1.374846   -0.948126
C      3.010123   -0.051360    0.541795
C     -1.256987   -0.134355   -0.124062
C     -0.698801   -0.643423    1.190385
N     -1.787465   -1.024617   -2.324819
N     -0.945163    0.238039    2.278827
O      3.390484   -1.230702    0.356485
O     -0.771180   -0.462365   -3.046684
O     -2.872984   -1.221871   -2.904366
O     -0.524236    1.546769    2.384547
O     -1.612470   -0.156218    3.285879
O      3.965588    0.944678    0.418259
H      6.141262    0.429621   -1.846123
H      4.358654    0.146998   -1.803834
H      5.486548   -1.111981   -1.157447
H      5.841052    1.643503    0.057050
H      5.783754    0.029276    0.870111
H     -5.397003    3.076392    0.494087
H     -5.484041    0.846713    1.468941
H     -3.423580    3.843513   -0.762573
H     -3.558498   -0.685159    1.197640
H     -1.525919    2.366336   -1.043561
H      1.574630   -2.466461   -0.356863
H      0.993566   -0.956672   -1.240370
H     -0.753025   -3.156479    0.002754
H     -0.310623   -2.920682   -1.705123
H      1.555256    0.770116    1.877184
H      1.241700    1.006903    0.141352
H      1.143071   -1.668570    1.717180
H     -2.520682   -1.790519   -0.506992
H     -0.489205    0.401908   -0.710430
H     -1.264625   -1.598213    1.404123
