44

C      5.084276    1.940184   -0.344485
C      5.089983    0.764577    0.608477
C     -4.266205    2.396836   -1.195422
C     -4.311730    2.208366    0.167949
C     -3.311066    1.747837   -1.914889
C     -3.409531    1.379461    0.795285
C     -2.417938    0.921985   -1.261311
C     -0.208227   -1.912931   -1.062787
C     -1.592585   -2.095515   -0.607490
C      1.978378   -1.095113   -0.456448
C     -2.409453    0.691512    0.091808
C      0.509609   -0.709844   -0.576049
C     -1.909316   -1.612657    0.758529
C      2.833835   -0.001676    0.004428
C     -1.503318   -0.153640    0.855415
C     -0.047951   -0.032571    0.601793
N     -1.278573   -2.440228    1.750901
N      0.612967   -0.338302    1.859257
O      2.463342    1.166997    0.278981
O     -1.482549   -2.193967    3.070504
O     -0.550862   -3.375837    1.413531
O      0.145871    0.402083    2.950313
O      1.491314   -1.141739    2.081289
O      4.191694   -0.262483    0.159534
H      4.344156    2.670673    0.013302
H      6.102205    2.385455   -0.314760
H      4.867513    1.546402   -1.358617
H      4.863625    1.052863    1.648812
H      6.100532    0.304903    0.594289
H     -4.964383    3.043557   -1.713146
H     -5.078042    2.731184    0.732822
H     -3.231244    1.860844   -2.987882
H     -3.517880    1.288863    1.870985
H     -1.692057    0.444215   -1.863601
H     -0.223060   -1.939040   -2.195355
H      0.386012   -2.843211   -0.815029
H     -2.315254   -1.732281   -1.367106
H     -1.784731   -3.225246   -0.585322
H      2.308440   -1.316332   -1.518588
H      2.119348   -2.063666    0.053993
H      0.529653    0.033316   -1.434965
H     -3.012483   -1.725043    0.936511
H     -1.644849    0.146399    1.954445
H      0.140530    1.082808    0.493307
