101

C      2.875446   -2.003446    2.607387
C      7.601746   -2.231980    1.298733
C     -5.938287    3.198098    1.150429
C      2.333027   -0.964694    2.021026
C      7.662415   -0.724651    1.396607
C     -4.596201    2.924351    0.585823
C     -2.558147   -3.487791   -3.793414
C     -1.364438   -3.082007   -3.239559
C      7.134529    2.168549   -0.334830
C     -5.384014    0.453589    2.577519
C     -3.757643   -2.921785   -3.417724
C     -1.313271   -2.084523   -2.277621
C     -6.213528   -1.066978   -1.968286
C      6.524196    1.429167    0.861747
C     -4.097394    1.009658    2.058903
C     -5.884864   -0.612562    1.668906
C      6.212591    1.903244   -1.607205
C     -6.712514   -0.994306   -0.544746
C      0.385763   -0.025215    0.298023
C      1.003631    1.242830   -2.014280
C      5.174619   -0.677076    1.181772
C     -2.751091    1.537989    0.014183
C      6.552694   -0.369759   -0.773259
C      2.708433   -0.360814    0.775697
C     -3.719252   -1.927325   -2.460194
C     -4.746624   -1.211765   -1.913050
C      1.698626    0.143127   -0.061027
C     -0.622975    0.436718   -0.491823
C      4.018810   -0.197117    0.392318
C      2.031014    0.787060   -1.237378
C     -2.515369   -1.527084   -1.910980
C     -2.036574    0.272011   -0.134778
C     -0.352886    1.089311   -1.679616
C     -4.139240   -0.340118   -0.993039
C     -4.968388    0.588582   -0.203695
C      4.271755    0.482070   -0.839779
C      6.495440   -0.050927    0.777769
C     -4.156336    1.446558    0.659379
N      3.325600    0.956738   -1.627171
N     -6.040932   -0.156406    0.346752
N      5.606414    0.700158   -1.153782
N     -2.830172   -0.547287   -1.013909
O     -1.246507    1.580323   -2.529731
C     -1.987702   -0.094778    0.182931
C      2.405823   -0.134244    0.324624
C     -1.111952    0.551503   -0.876370
C      1.018223   -0.410013   -0.100289
O      0.497674   -1.530736   -0.168779
O      0.229950    0.678543   -0.452962
H      2.491815   -2.375703    3.576312
H      3.682946   -2.566857    2.221098
H      6.899242   -2.672403    2.034617
H      7.377566   -2.499862    0.250604
H      8.610178   -2.626315    1.533136
H     -5.839295    3.401881    2.234832
H     -6.678041    2.408397    1.005417
H     -6.300462    4.181196    0.733698
H      1.502093   -0.506901    2.583724
H      8.622043   -0.410279    0.953600
H      7.691207   -0.458495    2.472642
H     -4.617906    3.261878   -0.489712
H     -3.788714    3.526185    1.051274
H     -2.584126   -4.274302   -4.549887
H     -0.412672   -3.512133   -3.519644
H      8.139834    1.834764   -0.537888
H      7.004227    3.240184   -0.144754
H     -5.146605   -0.105694    3.561331
H     -6.137963    1.176671    2.903561
H     -4.715586   -3.208815   -3.825070
H     -0.383393   -1.761946   -1.833648
H     -6.631388   -1.993415   -2.412827
H     -6.563392   -0.172005   -2.487233
H      7.162893    1.725335    1.716510
H      5.529319    1.885936    1.076366
H     -3.380766    0.131893    2.190866
H     -3.697471    1.817715    2.744858
H     -5.284242   -1.531425    1.818079
H     -6.914726   -0.892191    2.045371
H      6.877907    1.804837   -2.474327
H      5.523388    2.741380   -1.722385
H     -6.636864   -2.056859   -0.158366
H     -7.813877   -0.812012   -0.590074
H      0.123997   -0.555137    1.245579
H      1.261240    1.755489   -2.949851
H      5.295899   -1.768611    0.854462
H      4.998835   -0.592322    2.264338
H     -2.977129    1.959561   -0.988230
H     -2.228972    2.348138    0.550459
H      6.138061   -1.351770   -0.958163
H      7.560729   -0.200822   -1.124031
H     -2.022520   -0.284512    0.844028
H     -5.505785    1.319312   -0.925237
H     -1.901627    1.885520   -3.054281
H     -1.601702    0.141795    1.189501
H     -2.016267   -1.198909    0.087058
H     -3.022786    0.332042    0.129734
H      2.996177   -1.026515    0.544023
H      2.363196    0.561343    1.205359
H      2.952297    0.429801   -0.467588
H     -1.225689    0.093535   -1.862263
H     -1.497240    1.606634   -0.980355
