53

C      4.172208    0.497059   -0.344421
C     -4.095392   -0.560497   -0.288724
C      4.028207   -0.916765   -0.856618
C     -4.131557    0.916362   -0.200369
C      3.069202    0.784333    0.650876
C     -2.715441   -1.126242   -0.592191
C      2.698202   -1.523900   -0.457163
C     -2.925937    1.564095    0.388260
C      0.272265   -0.307624    1.582986
C     -0.525477    1.603080    0.154597
C      0.330616   -1.185665   -0.737804
C      0.598116    0.984071    0.885038
C     -0.463501   -1.152410    0.529433
C      1.743071    0.656295   -0.078159
C     -1.782491   -0.453169    0.386422
N      1.623279   -0.622098   -0.665323
N     -1.721385    0.909362    0.037887
Cl     0.000000    0.000000    0.000000
Cl     0.000000    0.000000    0.000000
Cl     0.686566    0.000000    0.000000
Cl     0.686511    0.000000    0.000000
O     -0.002678    0.369226   -0.000000
Zn     0.000000    0.000000    0.000000
H      4.071658    1.236720   -1.161391
H      5.143737    0.668179    0.166371
H     -4.843470   -0.880405   -1.065378
H     -4.431128   -1.053606    0.649820
H      4.180846   -0.920597   -1.941017
H      4.857455   -1.513280   -0.399207
H     -4.377098    1.410666   -1.185010
H     -5.007482    1.195909    0.457249
H      3.093589    0.080990    1.511468
H      3.165680    1.843722    1.002704
H     -2.485734   -0.836106   -1.645578
H     -2.763421   -2.208269   -0.474195
H      2.544536   -2.399373   -1.151969
H      2.806341   -1.920160    0.550053
H     -3.026966    1.562500    1.509990
H     -2.947059    2.642033    0.103544
H     -0.422355   -0.124971    2.410539
H      1.188918   -0.791463    1.919842
H     -0.172172    1.892652   -0.881236
H     -0.728886    2.606376    0.637066
H     -0.291714   -0.741479   -1.569607
H      0.434864   -2.264514   -1.029083
H      1.052601    1.669783    1.652815
H     -0.637973   -2.139061    0.973356
H      1.712180    1.451224   -0.854225
H     -2.290932   -0.533756    1.392884
H     -0.686566    0.000000    0.000000
H     -0.686511    0.000000    0.000000
H      0.826966   -0.183731    0.000000
H     -0.824288   -0.185495   -0.000000
