60

C      4.362499    0.123091   -1.195784
C      4.042946   -1.129925   -0.715821
C      3.681410    1.200983   -0.679959
C      3.071460   -1.303711    0.251462
C      2.719250    1.018516    0.279438
C     -4.516496    0.490727    0.014756
C     -3.603352   -0.350526   -1.984492
C     -3.267083    0.796935    0.526641
C     -2.353184   -0.055146   -1.496811
C      1.348388   -0.409653    1.804462
C      2.377967   -0.221873    0.778804
C     -4.715374   -0.077842   -1.225115
C     -2.164411    0.517036   -0.247485
C     -0.030414   -0.620561    1.269270
Br    -1.201792   -0.842311    2.816786
Cl    -6.339291   -0.445267   -1.822316
O     -0.769027    1.910233    1.460350
S     -0.510539    0.881934    0.341847
C      4.382824    1.286525    0.265081
C      3.218146    1.719147    0.832495
C      4.360565    0.225296   -0.594393
C      2.031402    1.079101    0.531090
C      3.156829   -0.413538   -0.891669
C     -3.416484    0.947705   -1.004912
C     -3.914512    0.319680    1.215988
C     -2.584578   -0.126249   -1.085653
C     -3.058434   -0.773695    1.112758
C      0.662016   -0.612151   -0.592005
C      1.964071    0.003835   -0.331473
C     -4.099276    1.186265    0.160317
C     -2.372084   -1.013892   -0.057865
C      0.328699   -1.728676    0.365834
Br     0.266746   -1.172007    2.189168
Cl    -5.193987    2.573164    0.311582
O     -1.045549   -2.560397   -1.698071
S     -1.276289   -2.420787   -0.177441
H      5.134885    0.252264   -1.963620
H      4.589887   -1.976873   -1.132571
H      3.939986    2.179512   -1.063536
H      2.815800   -2.278639    0.631728
H      2.183631    1.865414    0.685181
H     -5.385417    0.712049    0.626488
H     -3.679723   -0.793881   -2.962066
H     -3.149242    1.248953    1.517811
H     -1.442146   -0.246504   -2.047525
H      1.350064    0.396027    2.541300
H      1.623324   -1.346554    2.372184
H     -0.114008   -1.494410    0.606819
H      5.300036    1.827982    0.536090
H      3.221323    2.559593    1.515830
H      5.299786   -0.095213   -1.028881
H      1.126317    1.438860    0.991205
H      3.127091   -1.242601   -1.560833
H     -3.559440    1.624187   -1.831951
H     -4.462368    0.514248    2.145523
H     -2.054534   -0.289496   -2.027714
H     -2.973713   -1.399355    1.987072
H      0.635634   -1.052455   -1.615610
H     -0.120028    0.168641   -0.498321
H      1.049788   -2.573714    0.224013
