53

C      2.656875    0.919300    1.793221
C     -3.334808    4.203340   -0.795485
C     -2.347749   -3.319614    1.860195
C     -3.531135   -2.605277    2.051738
C      3.529936   -0.956232   -0.718545
C     -1.364042   -2.785766    1.053138
C     -3.662206   -1.387486    1.418796
C      2.819111    0.268969   -1.099965
C     -0.491147   -1.495827   -1.764577
C      2.727125   -2.050866   -0.120214
C      0.883460   -2.136264   -1.678194
C      0.724193    1.400224   -1.427880
C      1.732787    1.471582    0.763747
C     -0.685168    1.560524   -1.014474
C     -1.504112   -1.568819    0.425248
C     -2.679226   -0.874473    0.624085
C     -1.341459    0.515508   -0.555015
C     -1.301252    2.875764   -1.130622
C      0.773209   -0.646282    0.046932
C      1.513069    0.544011   -0.419368
C     -0.632560   -0.774419   -0.474803
N     -2.660751    0.355655   -0.091656
N      1.335614   -1.907024   -0.347200
O      2.253978    2.676930    0.303796
O     -0.724839    3.882372   -1.555330
O     -2.625071    2.996619   -0.735210
H      2.533214    1.549944    2.713947
H      3.725186    1.021962    1.514540
H      2.397040   -0.108067    2.105524
H     -3.155715    4.743416   -1.739904
H     -4.401092    3.977696   -0.620002
H     -2.979150    4.841958    0.039438
H     -2.266589   -4.269513    2.364630
H     -4.311258   -3.026840    2.690728
H      4.369274   -0.730604    0.007156
H      4.079812   -1.393900   -1.605588
H     -0.456992   -3.392721    0.940448
H     -4.607871   -0.852534    1.592487
H      2.722819    0.296236   -2.225504
H      3.481699    1.152148   -0.875516
H     -1.243013   -2.334856   -1.840297
H     -0.632385   -0.893596   -2.667448
H      3.017985   -3.059299   -0.540323
H      2.886740   -2.166436    0.976160
H      1.563531   -1.790366   -2.466528
H      0.813249   -3.255719   -1.813494
H      1.237421    2.386008   -1.435279
H      0.842014    0.985734   -2.449871
H      0.736172    1.628700    1.254566
H      0.680762   -0.682969    1.173290
H     -2.948188    1.099494    0.593453
H     -3.372305    0.386361   -0.853903
H      3.223807    2.725313    0.485872
