51

C     -0.806092    1.977650   -2.480892
C      4.931318    1.978348    1.224373
C     -1.377388   -3.753165   -2.038869
C     -0.139877   -4.355590   -2.113038
C     -2.447945    2.630873    0.909254
C     -1.620017   -2.638817   -1.253968
C      0.883942   -3.819198   -1.374258
C     -1.326928    2.706360    0.231346
C     -1.092465   -1.406580    1.718797
C     -2.868935    1.327519    1.408622
C     -2.520167   -0.974989    1.503151
C      0.595005    1.521393    1.002012
C      0.195743    1.780565   -1.365635
C      1.519393    0.391579    0.765389
C     -0.591694   -2.104144   -0.515031
C      0.640186   -2.692059   -0.579836
C      0.963672   -0.766529    0.489211
C      2.976301    0.595485    0.857543
C     -1.265222    0.232361   -0.050398
C     -0.485591    1.512188   -0.038072
C     -0.465284   -0.955128    0.413805
N      1.577340   -2.020618    0.234438
N     -2.438420    0.198260    0.698081
O      0.953854    2.938256   -1.230940
O      3.758754   -0.354985    0.674640
O      3.518863    1.828697    1.145583
H     -0.782616    3.028873   -2.856912
H     -0.529942    1.337558   -3.350937
H     -1.830307    1.728756   -2.202423
H      5.193948    3.062182    1.233847
H      5.252797    1.515037    2.178028
H      5.433960    1.429679    0.399923
H     -2.188678   -4.177658   -2.623868
H      0.046499   -5.229473   -2.729777
H     -3.024138    3.547849    1.073892
H     -2.616525   -2.211996   -1.240026
H      1.863931   -4.280886   -1.421104
H     -0.974646    3.680373   -0.160094
H     -1.094829   -2.506800    1.829705
H     -0.628990   -0.956181    2.595847
H     -3.992328    1.320894    1.453204
H     -2.541365    1.226790    2.483829
H     -3.162609   -1.717037    1.039536
H     -2.948380   -0.741754    2.504043
H      0.185968    1.455265    2.028284
H      1.148943    2.472724    0.941259
H      0.883946    0.942599   -1.586620
H     -1.528872    0.033349   -1.100556
H      1.756336   -2.524308    1.136316
H      2.486684   -1.950973   -0.276553
H      0.522866    3.737405   -1.584150
