39

C     -3.654215    0.469266    0.252044
C     -1.919557    2.265440    0.343017
C      2.015430    2.628619   -0.191313
C      0.514506   -2.082544    1.117034
C      3.502426    0.585966   -0.051480
C      3.071094   -0.892910   -0.145251
C     -1.749702   -1.482943   -0.293328
C     -0.520916   -1.935314   -1.111630
C     -2.266784    0.900877   -0.154379
C      2.193206    1.349559    0.034841
C     -1.307902   -0.171734    0.381664
C      1.714808   -0.740392   -0.632363
C      1.237551    0.324178    0.417682
C     -0.005100    0.055229   -0.194249
C      0.536650   -1.413381   -0.226188
H     -4.134824   -0.020780   -0.605064
H     -4.259894    1.346667    0.548401
H     -3.620542   -0.231668    1.103916
H     -2.886632    2.846513    0.396919
H     -1.309521    2.796165   -0.409456
H     -1.488409    2.284581    1.361083
H      2.866964    3.234453   -0.470577
H      1.053883    3.083417   -0.106467
H      1.560545   -2.437427    1.320007
H      0.093423   -1.498588    1.930388
H     -0.087534   -3.036852    1.065008
H      4.083672    0.770029    0.849788
H      4.014020    0.912263   -0.961856
H      3.763804   -1.382692   -0.860059
H      3.193234   -1.307372    0.852654
H     -1.941289   -2.195455    0.517364
H     -2.628940   -1.361806   -0.917821
H     -0.499433   -3.024122   -1.196520
H     -0.554678   -1.432227   -2.108398
H     -2.174162    0.895622   -1.259877
H     -1.410343   -0.209009    1.462919
H      1.657228   -0.230089   -1.612248
H      1.414803   -0.024089    1.450349
H     -0.066870    0.362550   -1.271962
