42

C     -3.972327    2.327049   -1.029865
C     -4.319808    2.015978    1.340115
C     -1.658322   -2.664891    0.670138
C     -2.838288   -0.169818   -1.456741
C     -2.193392   -1.535352   -1.491204
C     -2.039545    0.130733    0.883567
C     -3.840026    1.539151   -0.000193
C     -3.245979    0.187720   -0.033884
C     -0.815132   -0.380322    0.147289
C      7.025254    0.600456    0.126254
C      6.113706    1.288854    0.909356
C      6.528435   -0.125149   -0.931881
C      4.760722    1.247476    0.637539
C      5.179135   -0.166773   -1.203436
C      4.261621    0.520367   -0.423005
C     -1.193269   -1.736127   -0.399330
F      8.351786    0.650482    0.405459
F      6.627537    2.001449    1.952695
F      7.411700   -0.798842   -1.699848
F      3.908612    1.934193    1.427922
F      4.682699   -0.878614   -2.242900
O      0.177107   -0.532557    1.105368
P      1.557236   -1.073375    0.239447
S      2.579033   -2.029836    1.201353
S      2.511177    0.476656   -0.761800
S      0.413234   -2.290739   -1.118477
H     -4.414737    3.298343   -0.927013
H     -3.636457    2.010141   -2.007172
H     -4.525084    1.168896    2.026893
H     -5.242611    2.598075    1.204939
H     -3.513316    2.616992    1.809235
H     -2.760004   -2.700005    0.757620
H     -1.349290   -3.707341    0.368541
H     -1.215769   -2.497945    1.659310
H     -2.167361    0.612078   -1.861277
H     -3.770064   -0.193738   -2.055681
H     -2.959705   -2.325537   -1.412931
H     -1.694006   -1.655879   -2.460350
H     -1.861777    1.086439    1.397009
H     -2.272073   -0.632689    1.664144
H     -4.036587   -0.528266    0.261639
H     -0.554063    0.312268   -0.650626
