85

C      6.740979   -2.467750   -1.448276
C     -3.823795    2.308109    1.306510
C     -3.088782    0.578477    2.650729
C      4.565947    4.509712    1.815226
C     -7.194497   -4.601119   -1.411656
C      1.665061   -1.924767    0.750547
C      1.838020   -2.539640   -1.528841
C     -2.189137    3.213366   -1.501573
C      0.246702   -1.856516    0.608232
C      0.434154   -2.454110   -1.603839
C     -1.331093    4.260813   -1.715304
C      6.498693    0.226645    0.806512
C     -5.944462    0.063146    0.420915
C      6.544328   -1.251285    0.648877
C     -5.186087    0.477224    1.674881
C      3.928767   -2.377934   -0.187369
C     -2.967119    1.060080   -0.889034
C     -0.462955    1.774643   -0.631889
C      4.952488    2.061621    0.842699
C     -5.854685   -2.230228   -0.524789
C      3.103803    0.748966   -0.874917
C      2.443541   -2.269196   -0.327978
C     -1.781742    1.964762   -0.963152
C      5.194040    0.757768    0.343443
C     -5.181480   -1.103684   -0.104967
C     -0.401131   -2.116233   -0.558467
C      4.278705    0.113046   -0.502798
C      4.707349   -1.256170   -0.900394
C     -3.194876    0.211458    0.298093
C     -0.032084    4.043274   -1.378409
C      0.422041    2.818286   -0.839557
C      3.808384    2.656332    0.470085
C      2.869266    2.025000   -0.383991
C     -5.138186   -3.319684   -1.008724
C     -3.825669   -1.067592   -0.167523
C     -3.773656   -3.245479   -1.056124
C     -3.012848   -2.136023   -0.647549
N      6.074531   -1.556064   -0.619766
N     -3.833693    0.839074    1.397653
O      0.823033    5.136864   -1.609042
O     -3.159634   -4.418689   -1.569668
O      3.589866    3.953305    0.976028
O     -5.805447   -4.458040   -1.433647
O     -1.732771   -2.052228   -0.685621
O      1.786586    2.867902   -0.591000
H      7.361570   -1.906473   -2.183054
H      5.975511   -3.077959   -2.012307
H      7.314080   -3.184229   -0.852586
H     -4.537368    2.694149    0.563437
H     -2.813911    2.707722    1.272141
H     -4.254242    2.643774    2.298921
H     -2.881337   -0.487578    2.755951
H     -2.152176    1.190387    2.550817
H     -3.648112    1.035375    3.488829
H      5.580133    4.538934    1.316010
H      4.716751    3.926197    2.747904
H      4.287180    5.562263    2.006730
H     -7.424912   -5.687880   -1.515751
H     -7.655778   -4.102494   -2.292358
H     -7.637040   -4.215406   -0.467986
H      1.924108   -1.643576    1.815504
H      2.250967   -2.827906   -2.550949
H     -3.240054    3.397652   -1.781554
H     -0.212487   -1.555346    1.601668
H      0.093153   -2.703869   -2.654179
H     -1.681486    5.209213   -2.133006
H      6.685523    0.552622    1.858688
H      7.314873    0.640836    0.134769
H     -6.093394    0.867718   -0.296438
H     -6.957173   -0.240576    0.772213
H      6.105169   -1.748568    1.527283
H      7.637028   -1.528148    0.685973
H     -5.161609   -0.427496    2.334170
H     -5.694312    1.297893    2.217327
H      4.387064   -2.382888    0.817390
H      4.361493   -3.393721   -0.511424
H     -3.943180    1.605035   -1.031450
H     -2.946202    0.451534   -1.851489
H     -0.063743    0.802623   -0.200402
H      5.701107    2.505821    1.494882
H     -6.929164   -2.239415   -0.467006
H      2.330136    0.284612   -1.573812
H      4.675590   -1.505442   -2.000392
H     -2.178633   -0.137946    0.670502
H      1.804425    5.115117   -1.411106
