45

C     -4.420708    3.116087   -1.106946
C      4.043831    3.071327    1.345263
C     -1.302332    0.304806   -1.307988
C     -2.320953    1.227691   -1.243283
C      2.966181   -1.385961   -0.742838
C      2.369874   -2.732351   -0.941497
C     -0.390226   -2.009684   -1.063562
C     -2.759878   -1.432575   -0.592921
C      2.786999    0.698568    0.606998
C      0.324844   -0.007880    1.525324
C     -1.494516   -1.023108   -0.990038
C      2.211067   -0.509965    0.195296
C      0.973152   -0.851008    0.665547
C      0.361448   -2.113844    0.243237
C     -3.778637   -0.506195   -0.528896
C      0.893337    1.196961    1.938854
C     -3.591731    0.819186   -0.845048
C      2.120873    1.545129    1.478597
N      1.442749   -3.069573    0.096625
O     -5.082518   -0.860558   -0.133445
O      0.220397    2.036128    2.809701
O     -4.581107    1.767977   -0.792947
O      2.781716    2.713876    1.820074
H     -4.371066    3.318021   -2.199242
H     -5.256733    3.717828   -0.673424
H     -3.499360    3.498152   -0.617544
H      4.859668    2.379115    1.680801
H      4.300627    4.126246    1.505784
H      4.010319    2.946542    0.222535
H     -0.326550    0.615889   -1.613240
H     -2.120016    2.251567   -1.501513
H      3.994331   -1.523572   -0.302394
H      3.156240   -0.840816   -1.708472
H      1.931951   -2.842390   -1.963309
H      3.164751   -3.534070   -0.907657
H      0.260063   -1.684598   -1.900071
H     -0.848254   -3.000721   -1.261439
H     -2.969157   -2.455501   -0.332796
H      3.768825    0.923858    0.207211
H     -0.658688   -0.252889    1.914479
H     -0.331554   -2.543156    0.995757
H      1.104759   -4.046231    0.049008
H      1.988726   -3.012620    1.008271
H     -5.236939   -1.827166    0.101599
H     -0.695802    1.791476    3.162371
