59

C      1.364624   -3.617801   -2.053169
C     -6.532235    3.861993   -2.374428
C     -7.544542    3.865078   -1.450196
C     -5.472663    2.965447   -2.192715
C      6.281861   -0.329265    0.282484
C      4.570479   -1.438576    1.722115
C      7.137014    0.724939   -0.015858
C      3.196886   -1.144774    1.176418
C     -7.489638    3.000420   -0.387556
C     -3.224435    1.072354   -1.793684
C     -4.437016    0.294715    0.228033
C     -1.920018    0.703436   -1.152456
C     -3.103892    0.433679    0.978405
C      5.551047    0.763617    2.225577
C      0.097920   -3.417681    0.970655
C     -1.791028   -2.065369    1.378973
C      1.804533   -2.879807   -0.772471
C      5.487654   -0.336983    1.382041
C      7.185645    1.809267    0.834892
C      6.376697    1.828525    1.977395
C      0.544627   -2.565725   -0.044871
C     -5.421963    2.098084   -1.123059
C     -1.361751   -1.223149    0.384825
C      3.171078   -0.984200   -0.266521
F      7.991646    2.851798    0.594824
F      6.447571    2.909469    2.797117
N     -1.032891   -3.157962    1.646227
N     -6.446245    2.143135   -0.241501
N      2.568792   -1.743114   -1.053288
N     -0.200421   -1.492208   -0.307610
N     -4.345395    1.168252   -0.923186
N     -2.107585   -0.065928    0.075072
O      3.867798    0.097690   -0.838469
H      0.506908   -4.260657   -1.767639
H      0.926201   -2.803971   -2.695616
H      2.203669   -4.122678   -2.528452
H     -6.543966    4.538013   -3.232277
H     -8.370228    4.532704   -1.551679
H     -4.707678    2.986347   -2.924747
H      6.247693   -1.185866   -0.392933
H      4.947753   -2.392217    1.289393
H      4.543603   -1.596179    2.828477
H      7.770078    0.722586   -0.899546
H      2.778332   -0.221915    1.671847
H      2.489301   -1.968940    1.481482
H     -8.293341    3.014844    0.327977
H     -3.431408    0.267093   -2.549854
H     -3.049135    1.993996   -2.399420
H     -4.664163   -0.746392   -0.005012
H     -5.237106    0.637723    0.944355
H     -1.441308    1.671054   -0.822995
H     -1.251342    0.201538   -1.850241
H     -2.938578    1.551882    1.012010
H     -3.129720    0.000482    1.972291
H      4.934146    0.813978    3.129645
H      0.714016   -4.289592    1.172871
H     -2.701535   -1.897555    1.947670
H      2.354958   -3.618377   -0.139738
H      4.128693    0.042744   -1.825653
