59

C      1.371916    0.540221    1.387625
C     -8.483384   -0.704412    2.114754
C     -9.311392   -1.294707    1.190260
C     -7.210621   -0.263710    1.727725
C      7.647150   -0.796480    1.333706
C      5.353543   -1.464057    0.782944
C      8.903266   -0.362788    1.000306
C      4.401022   -0.342433    1.135915
C     -8.840384   -1.426416   -0.094930
C     -4.573908    0.662212    0.953943
C     -5.134937   -0.172991   -1.344680
C     -3.151628    0.697764    0.552535
C     -4.104399    0.895968   -1.700374
C      7.044329   -0.731608   -0.943613
C      0.909251   -0.047950   -2.281719
C     -1.372036    0.252264   -2.700207
C      1.793669    0.044663    0.021638
C      6.672585   -0.994888    0.360758
C      9.247918   -0.109653   -0.289048
C      8.306394   -0.294869   -1.289043
C      0.673146    0.122184   -0.937483
C     -6.779654   -0.414581    0.433698
C     -1.635319    0.425482   -1.365185
C      4.139340    0.583748    0.015164
F     10.496135    0.312514   -0.557276
F      8.627411   -0.049950   -2.577191
N     -0.113178    0.014815   -3.184978
N     -7.622464   -0.995053   -0.428241
N      2.972884    0.734403   -0.457086
N     -0.567745    0.351250   -0.509446
N     -5.491413    0.035923    0.051295
N     -2.933061    0.667125   -0.894425
O      5.183729    1.303583   -0.534408
H      1.045082   -0.303247    1.993179
H      0.473153    1.194943    1.209690
H      2.112073    1.198767    1.863966
H     -8.837877   -0.591786    3.137814
H    -10.312863   -1.646621    1.476903
H     -6.608670    0.191260    2.495477
H      7.411800   -0.987822    2.369302
H      4.907314   -2.077885   -0.029473
H      5.478499   -2.075787    1.717244
H      9.628065   -0.225313    1.816660
H      4.906033    0.204204    1.989060
H      3.470412   -0.747388    1.584305
H     -9.467950   -1.882454   -0.831987
H     -4.672374    0.127575    1.930099
H     -4.943047    1.720870    1.085933
H     -6.012511   -0.083733   -1.999234
H     -4.624976   -1.147169   -1.417406
H     -2.526014   -0.075753    1.071981
H     -2.707871    1.673919    0.886122
H     -3.950824    0.820508   -2.783135
H     -4.501482    1.911771   -1.418455
H      6.319836   -0.874877   -1.731703
H      1.931199   -0.231055   -2.584869
H     -2.164567    0.295611   -3.436853
H      2.066803   -1.025510    0.126025
H      5.162592    1.684014   -1.493573
