41

C     -4.137665   -0.108451   -1.113617
C     -2.345650   -1.730342   -0.809102
C     -3.931644   -1.214309    1.057612
C      2.337986   -1.866517   -1.676042
C      3.698023   -1.622533   -1.729393
C      1.505920   -0.953478   -1.042967
C     -1.372352    0.073665    1.336807
C      0.314648    1.789015    0.674398
C     -0.533949    1.230576    1.804576
C      4.229469   -0.484609   -1.160809
C      1.994938    0.204045   -0.457086
C      3.384875    0.382030   -0.551852
C      5.455632    1.155811   -0.404590
C     -3.145710   -0.693545   -0.098415
N     -2.278093    0.413385    0.261498
N      5.508329   -0.009355   -1.071410
N      4.144666    1.385073   -0.090926
O     -1.447262    2.205242    2.242471
O      6.450418    2.048909   -0.038185
O      1.242265    1.060287    0.131805
H     -4.718200   -0.925175   -1.560192
H     -4.812889    0.601097   -0.627064
H     -3.562145    0.411513   -1.925238
H     -1.845551   -1.233276   -1.671733
H     -3.000049   -2.507481   -1.258134
H     -1.639299   -2.195590   -0.122622
H     -4.163053   -0.388809    1.743168
H     -3.471163   -2.085766    1.566105
H     -4.910401   -1.592930    0.657485
H      1.968512   -2.768719   -2.135030
H      4.362224   -2.303627   -2.208407
H      0.455856   -1.145589   -1.007373
H     -0.732683   -0.769787    1.014915
H     -1.926798   -0.312834    2.228229
H     -0.467716    2.057553   -0.117455
H      0.619423    2.869610    0.961450
H      0.093019    0.877934    2.640639
H     -1.702350    0.568424   -0.623611
H      3.757463    2.202410    0.426713
H     -1.981802    2.453831    1.426133
H      6.602757    2.922308   -0.567565
