59

C      3.358386   -3.609215   -0.940244
C      3.028668   -3.803134    1.512544
C     -2.287168   -3.703552   -0.424695
C     -4.360711    2.689430   -2.746630
C     -5.693935    2.367488   -2.904148
C     -3.613476    2.203575   -1.706502
C     -6.290901    1.529994   -1.983982
C      3.908071    2.127819    1.828317
C      2.495656    1.618766    1.745508
C     -2.340526    0.773933    0.932893
C     -4.785772    0.021329    0.859364
C      4.242895    4.417136    0.727812
C      3.443800   -2.861531    0.374469
C     -1.442042   -2.464713   -0.332844
C     -3.698783    0.736583    0.344576
C      4.333876    2.947434    0.691014
C     -4.188580    1.366074   -0.776376
C     -5.531960    1.048090   -0.944196
C      2.313293    0.764533    0.527884
C     -1.339513   -0.065657    0.130580
C     -0.007404    0.004797    0.777807
C      3.176567   -0.414731    0.537726
N      6.081644    5.739465    1.742776
N     -5.837581    0.229471    0.078234
N      5.192218    5.095265    1.189809
N     -1.917132   -1.344612   -0.020369
N      0.955756    0.539451    0.193073
O     -0.097483   -2.602398   -0.612078
O      4.790271    2.455366   -0.356475
O      0.113123   -0.547827    2.058605
O      4.424588   -0.402340    0.687248
O      2.627935   -1.687252    0.371985
H      2.329995   -3.633168   -1.332117
H      4.076206   -3.152046   -1.652428
H      3.614119   -4.675822   -0.724104
H      2.368306   -3.290258    2.218203
H      3.934323   -4.128359    2.050692
H      2.497692   -4.669857    1.057867
H     -1.693570   -4.576570   -0.052394
H     -2.659855   -3.869795   -1.440787
H     -3.162328   -3.631460    0.286266
H     -3.923135    3.346542   -3.483610
H     -6.286035    2.759628   -3.739292
H     -2.563139    2.441746   -1.561277
H     -7.332285    1.292820   -2.126541
H      4.008206    2.818971    2.736678
H      4.656383    1.333255    2.070587
H      1.833779    2.510307    1.720497
H      2.330394    1.054681    2.709258
H     -1.941485    1.818140    0.900511
H     -2.336615    0.465904    1.993121
H     -4.726928   -0.579703    1.741334
H      3.366985    4.938577    0.361436
H      4.488049   -2.537486    0.519719
H      2.718535    1.419247   -0.328517
H     -1.231293    0.373445   -0.898989
H     -6.801609   -0.188152    0.227568
H      0.395696   -1.914123   -1.178279
H      0.985831   -0.895503    2.415345
