39

C      3.091158    0.252740   -1.524236
C     -0.521305   -2.590070   -0.077033
C     -1.960594    1.018170   -1.397806
C     -1.554777    2.096874    0.767820
C     -3.727852   -0.922812   -0.024554
C     -2.817229   -2.044085    0.421270
C      1.504621    0.084165    0.520766
C      0.406704   -0.101301   -0.170273
C     -3.242567    0.339661    0.646790
C      3.873834    0.442571    0.730111
C      2.832340    0.261799   -0.072023
C     -1.389777   -1.653758    0.266051
C     -0.896827   -0.273590    0.476482
C      5.235283    0.630343    0.293124
C     -1.897507    0.780591    0.075421
O      5.572416    0.641692   -0.893301
O      6.227786    0.808585    1.242897
H      3.800729   -0.596929   -1.713663
H      2.204226    0.090346   -2.150921
H      3.551207    1.205545   -1.862656
H      0.544928   -2.372274   -0.208598
H     -0.818834   -3.622917   -0.246223
H     -3.016318    1.071498   -1.746809
H     -1.519758    2.022035   -1.670067
H     -1.414879    0.237032   -1.966240
H     -0.856379    1.923606    1.613918
H     -1.065655    2.760314    0.026593
H     -2.495385    2.608208    1.121630
H     -3.710865   -0.864488   -1.125777
H     -4.758646   -1.106213    0.308587
H     -3.033550   -2.913149   -0.256878
H     -3.053633   -2.368136    1.455646
H      1.376509    0.100900    1.615401
H      0.456586   -0.128832   -1.241581
H     -3.034864    0.068190    1.710847
H     -3.981235    1.142769    0.660329
H      3.660179    0.446159    1.810636
H     -0.763109   -0.160572    1.591915
H      7.193038    0.685333    0.992405
