59

C     -3.808659    2.879273    0.594586
C     -4.058796    1.570005   -1.523799
C      1.167875    1.262996   -2.207483
C      5.601439   -1.019353   -0.233196
C      6.516605   -0.145232   -0.765057
C      4.459853   -0.556938    0.420282
C      6.322990    1.200377   -0.661635
C     -2.514156   -2.850477   -0.407501
C     -2.288331   -2.735678    1.086284
C      2.024577    1.108875    1.785242
C      3.653841    2.864821    0.877235
C     -4.156325   -4.656056   -1.062116
C     -4.004320    1.493680   -0.014528
C      1.620261    0.044584   -1.514375
C      3.266010    1.552443    1.101193
C     -2.795093   -4.258735   -0.732787
C      4.257293    0.790393    0.527784
C      5.190556    1.666077   -0.013565
C     -1.993600   -1.308259    1.490930
C      1.007507    0.778433    0.715242
C     -0.274931    0.318762    1.267002
C     -3.143737   -0.460512    1.114284
N     -5.475753   -3.238537   -2.605265
N      4.815613    2.919479    0.204054
N     -4.843756   -4.004947   -1.872203
N      1.536019   -0.133036   -0.245457
N     -0.751349   -0.834490    0.971181
O      2.182626   -1.008486   -2.247677
O     -1.866322   -5.090158   -0.721979
O     -0.973645    1.144439    2.115376
O     -4.288233   -0.776222    1.483903
O     -2.942516    0.664214    0.363448
H     -3.500802    3.592770   -0.196212
H     -3.137500    2.849162    1.456459
H     -4.790641    3.269019    0.981430
H     -3.549137    0.660607   -1.935935
H     -3.484699    2.455249   -1.868165
H     -5.117975    1.591801   -1.837496
H      0.157361    1.600819   -1.884177
H      1.107395    1.114150   -3.295034
H      1.860647    2.111995   -1.954423
H      5.714624   -2.096248   -0.291806
H      7.397164   -0.548967   -1.271036
H      3.772057   -1.253428    0.832799
H      7.062562    1.854632   -1.090636
H     -1.634088   -2.492123   -0.983867
H     -3.374497   -2.229524   -0.715552
H     -1.471726   -3.419994    1.395771
H     -3.212705   -3.088010    1.587074
H      2.231974    0.228757    2.429186
H      1.642581    1.970518    2.374531
H      3.099931    3.727266    1.198800
H     -4.581953   -5.532197   -0.595956
H     -4.962796    1.065264    0.391899
H     -1.922810   -1.271434    2.604341
H      0.873929    1.770477    0.169998
H      5.299795    3.805379   -0.075868
H      2.736096   -1.738965   -1.815904
H     -1.658333    0.821291    2.787767
