41

C     -4.032087   -0.786650   -1.457810
C      4.881532    2.195676    1.490539
C      5.510369    1.237030    0.720835
C      3.498777    2.248984    1.579341
C     -2.078155   -0.811216    0.915495
C     -3.321518   -0.092673    1.372577
C     -2.020394    0.665167   -1.104492
C      0.052732   -1.524044   -1.247920
C     -3.496596    0.516711   -0.949001
C     -1.250258    0.147202    0.100857
C      4.768306    0.297587    0.012917
C      2.775318    1.312917    0.873421
C     -0.001636   -0.438597   -0.398871
C      1.265758   -2.024646   -1.680047
C      3.394509    0.354864    0.104517
C      2.355352   -0.382688   -0.435685
Cl     5.537553   -0.935077   -0.975486
N     -3.872334    0.794956    0.409945
N      2.407695   -1.442550   -1.264699
N      1.445117    1.141554    0.785069
N      1.166518    0.103786   -0.015412
O      1.320306   -3.120045   -2.536868
Cl     0.688267    0.000000    0.000000
H     -3.230025   -1.500027   -1.759594
H     -4.730432   -1.227905   -0.708473
H     -4.661004   -0.663559   -2.387696
H      5.421973    2.946897    2.058434
H      6.577361    1.227131    0.676659
H      2.977285    2.976854    2.165264
H     -2.276077   -1.765805    0.426484
H     -1.484421   -1.039157    1.835194
H     -4.111494   -0.860000    1.615266
H     -3.109041    0.449177    2.313194
H     -1.785428    1.741735   -1.230078
H     -1.654270    0.173470   -2.046401
H     -0.863206   -1.966157   -1.561741
H     -3.973598    1.325066   -1.578185
H     -1.005263    1.000853    0.759280
H     -3.831471    1.799075    0.640171
H      1.432246   -4.075894   -2.201123
H     -0.688267    0.000000    0.000000
