54

C      1.398783    2.608438    0.463180
C      5.208401   -2.009782   -0.808704
C      5.754047   -0.008762   -2.071381
C      6.238975   -0.044745    0.337994
C     -6.577056   -3.208236   -0.674998
C     -7.350621   -2.097383   -0.416906
C     -5.207949   -3.075538   -0.587135
C     -0.312733    0.173476    1.820959
C      1.140410   -0.122744    1.935912
C     -0.008527    0.799365   -0.573598
C     -2.470276    1.983614    0.836930
C      1.344994    1.220629   -0.139021
C     -0.863961    0.107354    0.415097
C     -6.745790   -0.905095   -0.083917
C     -4.585786   -1.882163   -0.253264
C     -2.242965    0.657122    0.500490
C     -3.756052    2.423177    0.899823
C     -5.368537   -0.773050    0.003896
C     -4.528456    0.275936    0.310030
C      3.207125   -0.263601    0.549200
C      5.266519   -0.492396   -0.702155
Cl    -7.681951    0.554928    0.260861
N     -4.753934    1.561810    0.635849
N     -3.316248   -1.478044   -0.097957
N      1.899671    0.278038    0.777182
N     -3.265103   -0.178729    0.241925
O     -3.971733    3.753542    1.237693
O      3.693497   -1.097874    1.373810
O      3.977218    0.075174   -0.530123
H      0.823553    3.338987   -0.111653
H      2.478215    2.930735    0.390016
H      1.188009    2.584012    1.542554
H      5.410400   -2.384182    0.225842
H      6.124670   -2.302754   -1.394988
H      4.280496   -2.379291   -1.246333
H      4.946505   -0.035556   -2.814254
H      6.553812   -0.690570   -2.451025
H      6.198261    1.001323   -2.020914
H      6.956115   -0.836125    0.640150
H      5.692853    0.374972    1.208239
H      6.840734    0.790931   -0.066794
H     -7.057173   -4.151108   -0.937689
H     -8.437753   -2.127951   -0.468105
H     -4.597960   -3.948178   -0.789318
H     -0.846839   -0.596584    2.443240
H     -0.553287    1.139151    2.311858
H      1.326974   -1.166121    2.255555
H      1.547211    0.506881    2.782512
H      0.130546    0.106701   -1.459995
H     -0.512151    1.685238   -1.025065
H     -1.599538    2.595402    1.030419
H      1.979882    1.295044   -1.070443
H     -0.939831   -0.966225    0.151195
H     -4.055670    4.400805    0.455134
