41

C      4.699801   -0.111045   -0.971117
C     -4.787450    1.980807   -1.804716
C     -5.417207    0.816882   -1.364752
C     -3.451291    2.154771   -1.615306
C      1.749956    0.398113    1.757392
C      2.761578    1.520461    1.678981
C      2.328128   -0.636615   -0.365587
C     -0.082739   -1.891402    1.055879
C      3.642941    0.006114    0.089310
C      1.230033    0.122545    0.340484
C     -4.698703   -0.163727   -0.737469
C     -2.721801    1.149208   -0.973560
C     -0.011601   -0.653701    0.465103
C     -1.277698   -2.538172    1.126751
C     -3.335841   -0.003195   -0.536005
C     -2.338818   -0.761601    0.039799
Cl    -5.499061   -1.627631   -0.185790
N      3.437501    1.408747    0.406512
N     -2.370073   -1.967535    0.623231
N     -1.427942    1.027912   -0.648415
N     -1.165261   -0.113880   -0.035937
O     -1.337612   -3.787660    1.725600
Cl     0.690494    0.000000    0.000000
H      5.202693    0.861147   -1.109928
H      5.467060   -0.827542   -0.639322
H      4.255668   -0.431699   -1.941654
H     -5.390556    2.719486   -2.289950
H     -6.481801    0.667254   -1.510283
H     -2.989168    3.064627   -1.965425
H      0.953959    0.693593    2.442123
H      2.199820   -0.550861    2.127659
H      2.217005    2.487019    1.726368
H      3.492246    1.421787    2.532011
H      2.269548   -0.566360   -1.464148
H      2.275627   -1.702555   -0.041917
H      0.851259   -2.293932    1.444626
H      3.970341   -0.508122    1.026659
H      1.036447    1.074640   -0.165098
H      2.920235    1.912459   -0.338283
H     -2.177226   -4.350335    1.727953
H     -0.690494    0.000000    0.000000
