34

C      4.336537    1.471524   -0.307468
C      3.642772   -1.426797   -0.095938
C      2.935492    0.943261   -0.486833
C     -4.365301    1.827782    0.462609
C     -3.134119    2.349967    0.749813
C     -4.493091    0.552479    0.007986
C     -2.020194    1.540505    0.563696
C     -3.564219   -1.524157   -0.634833
C     -2.508344   -2.356819   -0.834005
C      0.306742   -0.046989    0.210909
C      2.702048   -0.332174    0.317048
C     -3.369409   -0.242520   -0.172262
C     -2.105604    0.244808    0.105611
C     -1.004967   -0.584295   -0.088484
C     -1.227319   -1.876688   -0.557161
N      1.357244   -0.763070    0.051834
O     -0.191336   -2.737133   -0.767708
H      4.612124    1.994550   -1.251691
H      4.357169    2.242882    0.494143
H      5.060828    0.674411   -0.144663
H      4.209113   -1.770239    0.810201
H      4.365985   -1.100911   -0.870120
H      3.118537   -2.334403   -0.480805
H      2.245911    1.730883   -0.121608
H      2.693187    0.743124   -1.538385
H     -5.235105    2.473819    0.612797
H     -3.031783    3.353564    1.107733
H     -5.469651    0.146109   -0.217091
H     -1.084964    1.988111    0.799575
H     -4.562726   -1.901207   -0.851591
H     -2.602975   -3.358022   -1.190433
H      0.488017    0.950029    0.573342
H      2.776991   -0.131585    1.409002
H      0.762410   -2.740798   -0.687207
