41

C     -4.188227    0.191019   -0.686322
C      4.445211   -2.471492    1.078675
C      5.151673   -1.564694    0.311993
C      3.085889   -2.299810    1.196368
C     -1.557188    0.628453    1.423765
C     -2.736809   -0.074917    1.952679
C     -1.847657   -0.721335   -0.672780
C      0.130378    2.052416   -1.366159
C     -3.283687   -0.921325   -0.236702
C     -1.420110    0.613535   -0.074024
C      4.511625   -0.512819   -0.320412
C      2.441671   -1.243161    0.561320
C     -0.089954    0.959321   -0.553105
C      1.373103    2.409610   -1.837948
C      3.151734   -0.333921   -0.207734
C      2.238170    0.579572   -0.693975
Br     5.484446    0.746454   -1.383617
N     -3.279070   -1.124518    1.178580
N      2.422532    1.662708   -1.493648
N      1.162888   -0.829600    0.493495
N      1.014004    0.236000   -0.235105
O      1.468725    3.534372   -2.651479
Cl     0.683411    0.000000    0.000000
H     -4.216867    1.043226    0.017917
H     -5.210507   -0.200474   -0.766353
H     -3.868540    0.516221   -1.685482
H      4.990017   -3.288108    1.561201
H      6.219498   -1.684681    0.209012
H      2.540352   -3.010311    1.795670
H     -1.635275    1.717271    1.719059
H     -0.626884    0.279321    1.933076
H     -2.485651   -0.506194    2.968056
H     -3.573887    0.650106    2.182324
H     -1.263102   -1.563861   -0.303557
H     -1.838262   -0.596095   -1.772968
H     -0.724390    2.655957   -1.643207
H     -3.648757   -1.859407   -0.711819
H     -2.144402    1.355285   -0.472774
H     -4.269536   -1.298891    1.489458
H      2.076849    4.274767   -2.303474
H     -0.683411    0.000000    0.000000
