48

C      6.261569    0.216551    0.517554
C     -5.073761    1.772056    0.561241
C      5.548122    0.061957   -0.788685
C      2.954349   -2.459790    1.518157
C      1.601828   -2.248859    1.521643
C      3.841357   -1.683928    0.796536
C     -2.944311   -0.512808   -0.869438
C     -4.225204   -1.001775   -0.271460
C     -2.742776    1.047771    1.080468
C     -0.761005    2.106386   -1.609319
C     -4.234995    0.806225    1.321608
C     -2.524794    0.849652   -0.399497
C      1.128162   -1.196321    0.752790
C     -1.106636    1.081666   -0.759747
C      3.339896   -0.649146    0.045233
C      0.554135    2.331896   -1.951469
C      1.975204   -0.399052    0.019378
C      1.183951    0.540663   -0.620938
N     -4.486069   -0.567233    1.051209
N      1.526465    1.541429   -1.451275
N     -0.112002   -0.715851    0.530043
N     -0.101184    0.316408   -0.283540
O      0.877979    3.371801   -2.810268
O      4.151530    0.168314   -0.699916
Cl     0.691031    0.000000    0.000000
H      5.538889    0.338960    1.357312
H      6.914611    1.131349    0.441259
H      6.923652   -0.636697    0.702872
H     -6.071460    1.871920    1.029206
H     -4.596486    2.789047    0.678309
H     -5.212169    1.521522   -0.509141
H      5.894620    0.838860   -1.531799
H      5.788977   -0.944427   -1.204301
H      3.319796   -3.292386    2.127492
H      0.898403   -2.850616    2.083281
H      4.899183   -1.907013    0.837507
H     -2.093760   -1.203040   -0.694181
H     -3.084082   -0.457104   -1.970618
H     -5.121999   -0.785005   -0.898403
H     -4.158831   -2.130220   -0.250425
H     -2.517149    2.081809    1.333949
H     -2.209979    0.288314    1.679109
H     -1.534572    2.750291   -2.019090
H     -4.395944    0.984349    2.403644
H     -3.137264    1.611443   -0.919855
H     -4.060601   -1.150040    1.801626
H      1.384354    3.222093   -3.678064
H     -0.691031    0.000000    0.000000
