49

C     -0.121680   -2.007151    1.168983
C     -0.245598   -0.378339   -2.251369
C      5.652704   -0.954343   -1.271608
C     -5.802459    2.289885    0.958842
C      4.713899   -0.729227   -2.243730
C     -4.694682    3.135982    0.824230
C      5.466106   -0.537760    0.020289
C     -5.665405    0.926184    0.877099
C      3.542093   -0.071643   -1.948290
C     -3.460958    2.590173    0.610717
C      4.284614    0.138989    0.361116
C     -4.411755    0.410572    0.660431
C      3.356743    0.351328   -0.632395
C     -3.294881    1.211525    0.524288
C      4.145234    0.597241    1.728505
C     -4.219417   -0.968177    0.562709
C     -1.879981   -0.630133    0.206278
C      0.964583    0.655851   -0.372112
C     -0.624108   -1.303701   -0.063016
C      0.413302   -0.574807   -0.854411
N      4.909735    0.441529    2.700811
N     -2.105643    0.658905    0.307267
N      2.175800    1.018793   -0.292952
N     -2.993524   -1.424024    0.344393
O      2.932759    1.335714    1.963638
O     -5.340243   -1.767368    0.704358
O      0.072308    1.664473    0.108287
O     -0.990700   -2.404527   -0.940842
O      1.422864   -1.538441   -1.094073
H      0.448573   -2.927941    0.922268
H     -1.032010   -2.364754    1.733961
H      0.412398   -1.323293    1.844460
H      0.508393    0.046270   -2.922486
H     -0.460896   -1.422834   -2.623589
H     -1.166819    0.226429   -2.153665
H      6.583430   -1.470055   -1.485370
H     -6.779230    2.708824    1.127042
H      4.873066   -1.059500   -3.266300
H     -4.851988    4.193439    0.893783
H      6.210685   -0.722242    0.787239
H     -6.508207    0.241850    0.972189
H      2.818804    0.111247   -2.695255
H     -2.571022    3.200825    0.498866
H      5.833308   -0.076284    2.663569
H      2.976637    2.047159    2.709794
H     -5.768131   -2.111263   -0.163314
H      0.373633    2.616480    0.062044
H     -1.861025   -2.198419   -1.375915
H      1.758693   -1.853440   -0.196763
