35

C     -0.794734   -1.605054   -0.454914
C     -5.483448    0.084908   -0.520950
C     -4.794119    1.009940   -1.280363
C     -4.802797   -0.627084    0.443625
C      4.836439   -0.380070    2.092333
C      5.660268    0.263152    1.204613
C     -3.446585    1.217401   -1.076361
C     -3.438195   -0.411816    0.644755
C      3.518646   -0.525244    1.766161
C      5.158667    0.739680    0.029684
C     -1.327604    0.757059    0.074156
C      1.590501   -0.257578    0.340383
C     -0.493769   -0.162444   -0.817125
C     -2.758593    0.506857   -0.111007
C      2.990099   -0.040239    0.561948
C      3.801029    0.597165   -0.320278
N      0.902044    0.093988   -0.674584
O      3.382768    1.096576   -1.501646
H     -1.755998   -1.944299   -0.892054
H      0.009917   -2.289281   -0.798325
H     -0.790038   -1.673868    0.657980
H     -6.546810   -0.111334   -0.647627
H     -5.324303    1.571442   -2.038990
H     -5.355111   -1.357828    1.041103
H      5.214844   -0.768226    3.035328
H      6.711488    0.401138    1.420991
H     -2.946554    1.938551   -1.680115
H     -2.966153   -0.996039    1.409123
H      2.901526   -1.042876    2.501887
H      5.784762    1.245955   -0.679430
H     -1.094462    1.795267   -0.214949
H     -1.048715    0.528821    1.122124
H      1.017206   -0.788533    1.122877
H     -0.789004    0.064609   -1.854501
H      2.476790    1.069304   -1.869238
