38

C      1.828203    0.682153   -2.221243
C      4.392356   -1.610795    1.506215
C      4.821489   -0.910347    0.394658
C      3.232994   -1.178064    2.112275
C      4.115682    0.176591   -0.085348
C      2.527463   -0.094329    1.635332
C     -4.348908   -1.592029    1.039340
C     -3.121966   -2.015794    1.248755
C      2.215843    1.777791   -0.011033
C     -3.384918    0.395661   -0.236331
C     -1.041993    0.752312   -0.559975
C      1.184341    1.373656   -1.042772
C      2.954513    0.615744    0.515708
C     -2.130494   -0.033225   -0.024933
C     -4.504396   -0.356416    0.279297
C     -1.969009   -1.246169    0.720778
N      0.185127    0.478924   -0.443858
N     -5.713079    0.076870    0.063208
O     -0.831138   -1.718577    0.964274
O     -6.816022   -0.587301    0.523600
O     -5.925431    1.233761   -0.645484
H      2.293990   -0.253419   -1.814829
H      2.592281    1.315820   -2.674084
H      1.093564    0.412238   -2.979999
H      4.946669   -2.460675    1.879301
H      5.719392   -1.203295   -0.118212
H      2.878415   -1.709223    2.981656
H      4.471983    0.721188   -0.970144
H      1.628549    0.227617    2.119832
H     -5.212773   -2.138923    1.416469
H     -2.947769   -2.922813    1.804052
H      2.931345    2.459885   -0.475252
H      1.735913    2.293188    0.824238
H     -3.574219    1.301577   -0.790286
H     -1.308226    1.675975   -1.121624
H      0.661414    2.267672   -1.421864
H      0.569026   -0.332691    0.042765
H     -6.150212    2.125461   -0.218980
