19

C     -1.935190   -0.762802   -0.080799
C      1.043196    1.545185    0.442064
C     -0.937176    0.133127    0.611049
C      0.102612    0.665432   -0.359407
N      0.801214   -0.416788   -1.021316
N      1.520957   -1.364013   -0.288612
O      2.790262   -1.720646   -0.678145
O      1.064923   -1.926994    0.735934
Na     0.000000    0.000000    0.000000
H     -2.717149   -1.007429    0.672541
H     -1.492713   -1.722882   -0.390860
H     -2.379536   -0.192487   -0.901324
H      1.165124    2.495568   -0.100894
H      2.017291    1.025641    0.615963
H      0.639347    1.771421    1.442991
H     -1.517015    1.037180    0.955922
H     -0.500414   -0.305864    1.514452
H     -0.449958    1.261793   -1.110267
H      0.784226   -0.515441   -2.059293
