52

C     -2.212540    2.031176    3.742615
C     -4.167653    0.075252   -2.748465
C      0.943877   -3.130950   -3.119252
C     -1.802227    2.584172    2.565343
C     -2.361382    0.656970    3.850459
C     -3.078269    0.913916   -2.666389
C     -4.311643   -0.929732   -1.796010
C      0.769785   -1.793335   -3.371515
C      0.863909   -3.585619   -1.833201
C      4.361885   -0.687401    1.295150
C      5.311999    0.272352    1.493629
C     -1.541892    1.745924    1.494999
C     -2.092666   -0.142643    2.764238
C     -2.178389    0.730664   -1.654781
C     -3.381102   -1.076702   -0.795582
C      0.512186   -0.908325   -2.309944
C      0.612437   -2.707988   -0.817377
C      3.103056   -0.252622    0.812839
C      5.015776    1.574866    1.225676
C      1.524918    1.527206    0.106961
C     -1.667650    0.383500    1.532913
C     -2.267501   -0.238780   -0.690602
C      0.431284   -1.362266   -1.022020
C      2.764959    1.014453    0.536485
C      3.777702    1.955728    0.757607
C     -1.382063   -0.513293    0.407579
C      0.131417   -0.422135    0.094170
N      0.518138    0.862696   -0.041803
O      3.619447    3.295872    0.531088
H     -2.413740    2.692398    4.573506
H     -4.903597    0.195740   -3.544118
H      1.146466   -3.822504   -3.959999
H     -1.676934    3.644022    2.448228
H     -2.689328    0.249812    4.800256
H     -2.955607    1.698432   -3.400627
H     -5.167677   -1.591859   -1.857297
H      0.838369   -1.461740   -4.397953
H      1.001272   -4.640188   -1.633194
H      4.555902   -1.740123    1.496246
H      6.293788   -0.000355    1.861402
H     -1.229308    2.238625    0.581300
H     -2.206799   -1.213855    2.842166
H     -1.327245    1.393912   -1.607680
H     -3.553263   -1.876667   -0.089514
H      0.407072    0.116382   -2.626386
H      0.543314   -3.051161    0.228802
H      2.436294   -1.074370    0.666180
H      5.765862    2.348156    1.381986
H      1.451889    2.646231   -0.127184
H     -1.519667   -1.570824    0.776488
H      0.517270   -0.874725    1.033409
H      2.867869    3.821705    0.209170
