42

C     -3.050443   -3.934933   -1.120737
C     -0.728625    4.650434    0.869268
C     -3.700498   -3.246111   -0.113989
C     -2.100733   -3.306008   -1.914414
C     -0.154476    3.957055   -0.177768
C     -1.418172    3.935265    1.820491
C      5.019216    0.043636    0.551491
C      5.275115   -1.127329   -0.126258
C     -3.382738   -1.913019    0.085340
C     -1.810672   -1.958089   -1.678201
C     -0.238454    2.582852   -0.316574
C     -1.509764    2.557182    1.692985
C      3.723989    0.462761    0.752258
C      4.202326   -1.839489   -0.581060
C     -2.149991    0.138063   -0.444260
C      1.291339    0.286105    0.565134
C     -2.448272   -1.264081   -0.683131
C     -0.931635    1.885401    0.643918
C      2.614951   -0.249628    0.295989
C     -1.062854    0.415147    0.557662
C      2.877520   -1.411680   -0.376151
N      0.192349   -0.221986    0.225911
O      1.891129   -2.196487   -0.869919
H     -3.301079   -4.976200   -1.273731
H     -0.637821    5.746402    0.942204
H     -4.445406   -3.703430    0.523433
H     -1.634110   -3.885691   -2.672372
H      0.385692    4.535779   -0.919264
H     -1.864533    4.473818    2.634393
H      5.867200    0.613017    0.914836
H      6.275295   -1.496496   -0.308041
H     -3.917436   -1.391244    0.894870
H     -1.060427   -1.528301   -2.332946
H      0.240530    2.091616   -1.172806
H     -2.057949    2.017549    2.454933
H      3.519572    1.390916    1.289368
H      4.392556   -2.763709   -1.116400
H     -1.885683    0.701950   -1.366303
H     -3.061171    0.678773   -0.048940
H      1.229201    1.233671    1.123747
H     -1.374551    0.052825    1.581628
H      0.929514   -2.036304   -0.806595
