31

C     -2.852029    2.188507   -0.187934
C     -2.946856   -1.575942    0.396704
C     -3.216451    0.729657   -0.458854
C      3.788468   -0.683889   -0.569439
C      3.121863   -1.665220   -1.151533
C      1.647127    0.278147    0.365692
C     -0.465899   -0.784809   -0.083417
C     -2.600541   -0.128583    0.642357
C      0.971975   -0.692130   -0.207750
C      3.117401    0.329064    0.208662
C      1.682316   -1.695842   -0.984673
N     -1.147492    0.061074    0.582166
N      3.761199    1.282278    0.774535
O      1.054924   -2.649105   -1.552741
O      3.098912    2.244080    1.516629
O      5.123545    1.423605    0.693178
H     -2.506554    2.295958    0.863035
H     -3.748908    2.821587   -0.340586
H     -2.032690    2.506994   -0.844236
H     -2.993026   -1.813543   -0.675445
H     -2.205607   -2.251450    0.886586
H     -3.930618   -1.840832    0.841872
H     -4.315106    0.578902   -0.381003
H     -2.898494    0.408468   -1.457339
H      4.859051   -0.664742   -0.696009
H      3.605557   -2.432284   -1.737563
H      1.175975    1.051375    0.954280
H     -0.949914   -1.628933   -0.595781
H     -3.016659    0.181601    1.607441
H     -0.770590    0.869094    1.083897
H      5.589123    1.256912   -0.171224
