28

C     -2.731130   -1.845326   -0.515897
C     -2.577362    1.089647   -0.762832
C     -2.963790   -0.918879    0.664681
C      3.209071   -1.272581    0.442406
C      4.170490   -0.425486   -0.053630
C      1.876232   -0.901519    0.469441
C      3.831859    0.831987   -0.544005
C      0.144314    0.781015   -0.008557
C     -2.167881    0.368243    0.490028
C      1.528503    0.355354   -0.019414
C      2.499374    1.197744   -0.514753
N     -0.775065    0.006855    0.450494
O      2.097722    2.442672   -0.990973
H     -3.167369   -2.831191   -0.268659
H     -1.654561   -1.993181   -0.668176
H     -3.243855   -1.402934   -1.407567
H     -2.101460    2.087195   -0.762825
H     -3.680777    1.225848   -0.718449
H     -2.255591    0.520869   -1.660195
H     -2.604327   -1.424157    1.563734
H     -4.037613   -0.691152    0.756901
H      3.442051   -2.269411    0.836074
H      5.219996   -0.729629   -0.069817
H      1.093583   -1.546551    0.854204
H      4.591153    1.497123   -0.934093
H     -0.124271    1.754260   -0.387237
H     -2.414975    1.015775    1.361489
H      2.795680    3.077411   -1.359555
