29

C     -2.326587   -2.402961   -0.024834
C      3.628883    1.713690    0.452451
C      4.473612    0.645399    0.671727
C     -3.588231    1.887585   -0.211751
C      2.302600    1.472442    0.169136
C      3.963571   -0.615864    0.599901
C     -3.224520    0.802770   -0.953282
C     -2.889955    1.792861    0.974251
C      0.357191   -0.016139   -0.210372
C     -1.652254   -1.186400   -0.614036
C      1.761739    0.195147    0.091058
C      2.607425   -0.861646    0.310176
C     -2.308317    0.071980   -0.193297
N     -0.237188   -1.145280   -0.304896
O      2.250118   -2.182664    0.273743
O     -2.149188    0.705793    0.937331
H     -2.500289   -3.164563   -0.810772
H     -1.677337   -2.846607    0.751121
H     -3.316886   -2.091260    0.370480
H      4.048315    2.704179    0.513008
H      5.513667    0.866490    0.892884
H     -4.280373    2.699727   -0.444489
H      1.658271    2.314118    0.001043
H      4.643506   -1.443244    0.775357
H     -3.586703    0.563617   -1.946874
H     -2.935396    2.489760    1.803804
H     -0.221214    0.919606   -0.367009
H     -1.715196   -1.263926   -1.735165
H      1.400734   -2.624609    0.101423
