29

C      1.869418   -1.865828    0.941294
C     -4.491450   -0.702940    0.076304
C     -4.696362    0.646142    0.211532
C      4.069418    1.710143   -0.065572
C     -3.190162   -1.146127   -0.027878
C     -3.637706    1.524443    0.241842
C      2.912877    1.133480    0.390333
C      4.543509    0.915230   -1.086467
C     -0.781150   -0.861003   -0.118063
C      1.581034   -0.961449   -0.241798
C     -2.096536   -0.311217   -0.003292
C     -2.317254    1.036499    0.132575
C      2.719503   -0.002405   -0.374056
N      0.340501   -0.265375   -0.117063
O     -1.328638    1.978840    0.172225
O      3.716391   -0.069387   -1.223166
H      2.265758   -1.290836    1.800910
H      0.965942   -2.424829    1.188187
H      2.661255   -2.573235    0.617263
H     -5.322619   -1.369689    0.054625
H     -5.732080    1.010444    0.295526
H      4.567729    2.615118    0.268916
H     -3.063574   -2.233715   -0.135023
H     -3.818225    2.585493    0.349140
H      2.292017    1.517381    1.195876
H      5.463074    1.110987   -1.661436
H     -0.709541   -1.961258   -0.223727
H      1.577133   -1.630694   -1.140439
H     -0.360261    1.885789    0.116685
