67

C      1.035466    2.035859    1.615924
C     -2.077446   -0.361579    2.763486
C     -4.703985    4.190467    1.567544
C      6.530757   -1.194796   -1.651303
C      1.629044   -4.645403   -0.798239
C      5.397525   -0.884945   -2.354269
C      6.593621   -1.071488   -0.288370
C      1.939670   -3.929507    0.361573
C      0.608631   -4.202943   -1.605512
C      1.852860    0.531855   -0.241343
C     -2.724434   -1.306092   -2.658156
C      0.750785    0.905547    0.674398
C     -1.307740    0.495532    1.763261
C     -4.821804    3.382654    0.330121
C      4.275912   -0.431383   -1.664248
C      5.465657   -0.619658    0.364571
C      1.243897   -2.792578    0.706854
C      3.132175    0.173886    0.408585
C     -3.538169   -0.214710   -2.487352
C     -0.071768   -3.063024   -1.237878
C     -1.726099   -1.633111   -1.745873
C     -0.042388   -0.240178    1.318953
C     -2.195902    0.931173    0.707121
C     -4.035073    2.351941    0.050976
C      4.299212   -0.294864   -0.301632
C      0.234228   -2.333259   -0.073648
C     -3.344129    0.561320   -1.367326
C     -1.503133   -0.866018   -0.612624
C     -0.476015   -1.195854    0.274786
C     -2.331681    0.217456   -0.448899
C     -3.047901    1.995387    0.945948
C     -4.198007    1.616993   -1.146697
O     -5.801939    3.674950   -0.640584
O      3.170450   -0.138473   -2.445926
O      5.559485   -0.503488    1.759303
O      1.552592   -2.197591    1.747321
O      3.229181    0.278902    1.666163
O     -4.407814    0.023523   -3.344333
O     -2.904533    2.706717    2.099160
O     -5.192782    2.026175   -1.976929
O     -1.031534   -2.686054   -2.027990
H      2.079828    2.358735    1.401240
H      1.076312    1.614285    2.663048
H      0.323813    2.866796    1.603964
H     -1.813839   -1.424474    2.609708
H     -3.159188   -0.176254    2.614731
H     -1.812075   -0.006012    3.779989
H     -5.523501    4.975837    1.508654
H     -3.790522    4.790355    1.641565
H     -4.983956    3.632639    2.487269
H      7.410326   -1.548670   -2.175280
H      2.183970   -5.538118   -1.060287
H      5.369070   -0.991544   -3.451288
H      7.504178   -1.319456    0.279569
H      2.732554   -4.258504    1.006446
H      0.341940   -4.741851   -2.518436
H      1.490035   -0.315571   -0.902362
H      2.092805    1.332536   -0.993162
H     -2.885383   -1.922319   -3.546790
H     -0.005307    1.421962   -0.066383
H     -0.903886    1.412347    2.289455
H      0.302180   -0.582705    2.260565
H     -6.751484    3.720021   -0.290233
H      3.152169   -0.238148   -3.448262
H      6.379071   -0.727722    2.267676
H     -2.303982    2.642759    2.861099
H     -5.522000    1.729734   -2.829408
