45

C      0.398265   -2.507359   -1.337107
C      5.071265   -1.326856    0.033199
C     -5.903813    0.865914    0.024648
C     -5.553477   -0.458277    0.069417
C     -4.928045    1.803768   -0.012907
C     -0.509678    3.221840   -0.078752
C      0.066146   -1.827988    0.009302
C      4.478144    0.023006   -0.001758
C     -4.198209   -0.805613    0.075073
C      0.859101    3.044322   -0.076547
C     -3.590313    1.461783   -0.007319
C     -1.386215    2.165889   -0.043066
C      0.867135   -0.613517    0.028093
C      3.153645    0.188939   -0.001716
C     -3.179165    0.119615    0.037678
C      1.339974    1.739360   -0.037540
C     -0.946955    0.854980   -0.003259
C      0.438563    0.679349   -0.003030
C     -1.831078   -0.207928    0.040628
C     -1.439069   -1.612063    0.121258
C      2.246496   -0.836244    0.029587
C      2.696080    1.531290   -0.037279
O      5.306789    1.154219   -0.035598
O     -3.877701   -2.022703    0.116312
O      1.628017    4.051963   -0.109381
O     -1.712119   -2.022237    1.455558
O      2.767002   -2.117832    0.065506
O      3.618169    2.532116   -0.068930
O     -2.667895    2.404425   -0.044390
H      0.430353   -3.590051   -1.268179
H     -0.488902   -2.272128   -1.996379
H      1.254462   -2.065164   -1.837630
H      4.817005   -1.921373   -0.866841
H      6.189092   -1.190741   -0.034716
H      4.828419   -1.880872    0.965891
H     -6.971200    1.088334    0.021935
H     -6.254310   -1.280216    0.101631
H     -5.215763    2.846167   -0.048069
H     -0.865728    4.243670   -0.110269
H      0.462301   -2.516248    0.782180
H     -1.833141   -2.286851   -0.636156
H      5.595512    1.568688   -0.915412
H     -1.107567   -2.720308    1.753725
H      2.289445   -2.986112    0.102635
H      3.658958    3.479047   -0.095365
