61

C      5.161262    1.361919    1.932897
C     -0.635207   -0.070517   -3.671544
C      0.093839   -0.878912   -2.686019
C     -0.809823   -4.107779    1.100288
C      0.627881   -2.151447    1.651634
C      2.737437    1.032856    0.090138
C     -2.569456   -1.709939    2.393241
C     -3.050787    1.116571   -3.942693
C      3.366530    0.952953    3.626346
C     -1.987438    0.342253   -3.275234
C      0.539544   -3.596094    1.479304
C      2.170150    2.342845   -0.419992
C      2.702447    0.942939    1.560132
C     -1.792580   -3.293755    0.945788
C     -0.390429   -1.307771    1.486226
C     -3.977670   -2.130915    1.976466
C     -2.471348    0.007208   -2.120926
C     -2.427206   -1.068970    0.049274
C     -1.796458   -0.752607   -1.161957
C     -3.732310    0.478655   -1.972003
C     -3.717544   -0.575031    0.160132
C     -4.376147    0.178259   -0.798101
C      1.607951    0.704526    2.328055
C      2.927150    3.502853    0.107589
C     -1.703318   -1.797847    1.103650
N      2.327908    2.349903   -1.861319
N     -0.607776   -1.160445   -1.435189
N     -4.071182    1.188088   -3.163392
N      2.019931    0.711261    3.603136
N     -4.492677   -0.938339    1.313915
N      3.800677    1.098506    2.356937
O      1.511030   -4.374404    1.632237
O     -5.664768    0.650175   -0.633781
O      3.562011    4.278059   -0.647289
O      2.943893    3.751214    1.465408
S     -3.560282   -3.444384    0.725358
S     -0.038184    0.428848    1.775075
H      5.354669    0.732817    1.014158
H      5.895195    1.151914    2.724036
H      5.326210    2.398716    1.595691
H     -0.662605   -0.578552   -4.665758
H     -0.067003    0.887223   -3.856979
H      0.384991   -1.865726   -3.140227
H      1.039987   -0.372989   -2.372904
H     -0.912850   -5.165389    0.967414
H      1.609965   -1.741475    1.938425
H      2.233182    0.166225   -0.380561
H      3.796841    0.995794   -0.293878
H     -2.176149   -2.389726    3.156542
H     -2.614362   -0.651726    2.701434
H     -2.958590    1.538813   -4.919795
H      3.994437    1.019524    4.504373
H      1.084511    2.432163   -0.225751
H     -4.556262   -2.508945    2.792125
H      2.616099    1.413162   -2.210568
H      1.461168    2.670128   -2.348565
H      3.132297    2.987175   -2.148781
H     -0.127500   -1.747456   -0.762641
H     -5.314113   -0.438077    1.658205
H     -6.232006    0.493963    0.174948
H      3.464832    4.511709    1.892868
