61

C      4.973472   -0.151410   -3.232294
C     -4.460954   -1.573186   -2.083878
C     -3.511697   -0.468491   -2.352494
C     -1.606432    3.599907   -0.131318
C      0.066023    2.012027   -1.089332
C      3.930058    0.399043   -0.459967
C     -0.417227    1.595063    2.133044
C     -5.352135   -2.943414    0.021389
C      2.633304   -0.951715   -3.552493
C     -4.549954   -1.941264   -0.667249
C     -0.580685    3.316113   -1.163636
C      4.545021   -0.555741    0.502237
C      3.133370   -0.157770   -1.547851
C     -1.849172    2.685468    0.741346
C     -0.214954    1.099171   -0.181447
C     -1.469720    1.765936    3.234601
C     -3.836365   -1.327837    0.243212
C     -2.234194    0.298551    1.062863
C     -2.937348   -0.291833    0.015589
C     -4.094682   -1.834488    1.489101
C     -2.503396   -0.214220    2.326422
C     -3.400802   -1.244007    2.521456
C      1.827486   -0.543015   -1.540944
C      3.621188   -1.435296    1.233816
C     -1.219095    1.332748    0.832004
N      5.304943    0.281198    1.477376
N     -2.822880    0.073460   -1.204693
N     -5.062533   -2.859116    1.302570
N      1.553561   -1.024442   -2.781209
N     -1.883365    0.388952    3.491481
N      3.614326   -0.419353   -2.805219
O     -0.301248    4.165792   -2.042755
O     -3.618724   -1.707840    3.796603
O      3.388693   -1.205342    2.444953
O      2.995150   -2.516451    0.641452
S     -2.776548    2.668810    2.268913
S      0.671658   -0.422688   -0.219550
H      5.361907   -0.947326   -3.867531
H      5.641353   -0.103095   -2.322794
H      5.040052    0.802479   -3.807893
H     -4.261716   -2.486227   -2.698170
H     -5.480117   -1.231135   -2.432897
H     -2.737364   -0.831234   -3.079337
H     -3.994971    0.412658   -2.870268
H     -2.128256    4.559234   -0.127534
H      0.820385    1.807078   -1.839283
H      4.764468    1.040730   -0.879138
H      3.340832    1.159679    0.147638
H      0.121125    2.533306    1.979834
H      0.228796    0.739171    2.315284
H     -6.065373   -3.646885   -0.404444
H      2.683579   -1.267535   -4.580512
H      5.339809   -1.151890   -0.016537
H     -1.115561    2.319425    4.075172
H      5.701461    1.115484    0.988991
H      6.051006   -0.257242    1.929196
H      4.635166    0.622752    2.200941
H     -2.201770    0.854403   -1.401618
H     -1.770888   -0.123581    4.362763
H     -4.262862   -2.460259    4.011226
H      2.734797   -3.353314    1.149224
