30

C     -3.006472   -0.595353    0.622016
C     -2.261578    0.522317   -0.078371
C     -2.209252   -1.806573    0.100779
C      2.841504   -1.517831   -0.854360
C      2.636018    0.619336   -1.223883
C      3.545074   -0.402237   -1.241639
C      1.518208   -1.166063   -0.605639
C      0.359825   -1.945783   -0.152636
C      0.146887    0.824417   -0.688352
C      0.209050    1.838393    1.367020
C     -0.817379    0.140380    0.197304
Br     5.391387   -0.326495   -1.699100
N      0.571582    2.656800    2.298698
N      0.457968    2.068584   -0.009326
N     -0.478745    0.598554    1.500553
N      1.401805    0.126247   -0.831711
N     -0.875106   -1.282130    0.037013
O      0.526640   -3.169477    0.044237
H     -4.059425   -0.662649    0.333562
H     -2.904848   -0.532249    1.728882
H     -2.422102    0.367372   -1.168915
H     -2.524538    1.517619    0.273910
H     -2.309985   -2.660911    0.798853
H     -2.647789   -2.051045   -0.881707
H      3.207028   -2.522222   -0.745446
H      2.809496    1.663602   -1.469875
H     -0.288247    1.085296   -1.691094
H      1.074082    3.545664    2.098038
H      0.788424    2.925052   -0.454825
H     -0.679516    0.141384    2.396015
