63

C      6.659724   -0.397006    1.372948
C      7.427180   -0.329552    0.108332
C      6.034002    0.955911    1.628868
C      6.739316    0.284156   -1.058131
C     -5.735398    0.946526    1.241240
C     -7.056694    1.201696    0.880659
C     -0.546865   -0.666732   -0.110634
C     -0.769060    1.669975    0.538923
C     -1.486517   -0.702849    1.067805
C     -2.311807    1.425326    0.530418
C      1.408682    0.645969   -0.171285
C     -7.010835   -0.665596   -0.591991
C     -3.760243   -0.561799    1.049464
C     -0.040524    0.808920   -0.437533
C     -5.082485   -0.124324    0.677880
C     -7.695375    0.435252   -0.024624
C     -5.731703   -0.944296   -0.238909
C      5.073857    1.199772    0.522310
C      5.926491    1.505339   -0.756673
C      2.020297   -0.500676   -0.304809
C      3.498816   -0.678846   -0.060322
C      3.031084   -2.789120   -0.948234
C     -9.064685    0.777034   -0.452802
C     -5.020583   -2.135980   -0.817973
F     -9.128357    0.572833   -1.827751
F     -9.950345   -0.064043    0.185127
F     -9.302549    2.099835   -0.150516
F     -5.824009   -2.750914   -1.729521
F     -3.842099   -1.769993   -1.402264
F     -4.828906   -3.104536    0.182924
N      4.230648    0.199579    0.211253
N      3.959000   -2.000019   -0.454840
N     -2.595072    0.133147    0.782056
O      6.652757    2.628968   -0.599484
O      3.524678   -4.066843   -1.295353
S      1.507958   -2.022071   -1.068747
H      7.398367   -0.550149    2.203422
H      5.902954   -1.164384    1.438945
H      7.640904   -1.420409   -0.175501
H      8.434847    0.080539    0.310852
H      6.857128    1.720516    1.666344
H      5.442828    0.948785    2.582570
H      6.015976   -0.490246   -1.513247
H      7.469774    0.516156   -1.843709
H     -5.258040    1.564968    2.019923
H     -7.567519    2.000619    1.388594
H      0.322917   -1.253032    0.314087
H     -0.875150   -1.155975   -1.024121
H     -0.706219    2.724509    0.133569
H     -0.361515    1.648838    1.545033
H     -1.842146   -1.755781    1.123679
H     -0.909340   -0.387836    1.942603
H     -2.725246    2.097629    1.305263
H     -2.715207    1.840271   -0.448467
H      2.011451    1.486436    0.135900
H     -7.552670   -1.256747   -1.342434
H     -3.783813   -0.339248    2.301963
H     -3.637232   -1.644552    1.153003
H     -0.225741    0.989669   -1.476654
H      4.504079    2.152342    0.718343
H      5.198925    1.613247   -1.574777
H      6.059754    3.430785   -0.392848
H      3.989557   -4.611992   -0.495852
