28

C     -3.152488    0.539265    1.204828
C     -0.536856    1.272707   -0.526827
C     -3.173884    0.103519   -0.236160
C     -0.690901   -0.094225   -0.508729
C      1.621408   -0.404623   -0.345591
C     -1.987981   -0.766288   -0.579540
C      1.771126    0.959075   -0.363816
C      2.710114   -1.257314   -0.254064
C      4.066313    0.617196   -0.201143
N      5.261372    1.120993   -0.130626
N      0.714238    1.767896   -0.452305
N      0.396695   -0.918023   -0.417896
N      3.034074    1.456356   -0.288562
N      3.944896   -0.719422   -0.181569
O     -4.300124   -0.749046   -0.348195
O     -1.974893   -1.811585    0.371494
O      2.487602   -2.621994   -0.240757
H     -2.647610    1.483138    1.402147
H     -4.226428    0.698758    1.510514
H     -2.704854   -0.311307    1.789333
H     -1.413951    1.890743   -0.601202
H     -3.344176    0.925087   -0.942958
H     -2.191733   -1.186968   -1.597557
H      5.440286    2.145578   -0.139813
H      3.155236    2.495560   -0.301962
H     -4.280898   -1.258828   -1.188901
H     -1.046485   -2.122151    0.518299
H      3.069903   -3.254096   -0.771070
