61

C     -4.537490   -0.433982   -0.603168
C     -5.486601   -1.400213   -0.954408
C     -0.203933    1.803150    0.524052
C     -0.872217   -0.526583    0.472975
C      7.976913   -0.561647   -0.575344
C     -1.589227    2.387581    0.358888
C     -2.106221    0.237008    1.022434
C      8.165662    0.940097   -0.556293
C      1.342514    0.230414   -0.469101
C     -7.146199    0.029599   -0.103717
C     -3.811372    1.732864    0.367994
C      6.008027    1.294321   -1.211292
C     -0.076490    0.493945   -0.253321
C     -4.842590    0.755822   -0.009535
C     -6.816461   -1.155897   -0.695658
C     -6.196161    0.984705    0.244169
C      5.601120   -0.204388   -1.179516
C      6.526409   -0.850454   -0.193566
C      2.015596   -0.819074   -0.167800
C      3.455586   -1.113150   -0.368142
C      2.984945   -3.160995    0.552773
C     -7.885761   -2.135040   -1.027172
C     -6.600726    2.246939    0.887422
F     -8.971093   -1.925491   -0.228082
F     -8.258179   -1.984811   -2.332934
F     -7.380249   -3.419414   -0.857285
F     -6.187298    3.297852    0.057892
F     -6.037739    2.348677    2.121156
F     -7.977493    2.320210    0.909130
N      4.235172   -0.213753   -0.881340
N      3.817507   -2.385180    0.060330
N     -2.491077    1.254159    0.046364
O      6.355188   -2.234879   -0.088191
O      3.171096   -4.485258    1.042878
O      7.317778    1.476902   -1.546109
S      1.404613   -2.329481    0.563264
H     -3.517239   -0.680764   -0.848014
H     -5.210091   -2.327028   -1.415526
H      0.060817    1.569087    1.569427
H      0.534805    2.511215    0.145837
H     -1.257177   -1.325083   -0.155555
H     -0.396426   -0.918385    1.404665
H      8.677550   -0.995076    0.147727
H      8.150803   -0.901529   -1.620202
H     -1.889321    2.854392    1.312406
H     -1.559424    3.123107   -0.453986
H     -1.808482    0.769752    1.959007
H     -2.875098   -0.474609    1.273419
H      9.197052    1.211458   -0.851938
H      7.933083    1.323034    0.446340
H      1.921649    1.039344   -0.967168
H     -8.169619    0.270808    0.123732
H     -4.027706    2.682891   -0.191491
H     -3.923671    1.983221    1.435988
H      5.754999    1.654210   -0.176765
H      5.366606    1.856299   -1.905486
H     -0.614549    0.689551   -1.225581
H      5.836768   -0.636689   -2.199256
H      6.384452   -0.357249    0.784312
H      6.509878   -2.482356    0.869103
H      4.016797   -4.934155    0.694145
