30

C      3.790873    0.499147    0.096759
C     -2.692503   -1.401247   -0.222539
C      3.307505   -0.699833    0.547566
C     -2.064722   -0.206885   -0.934051
C      2.731612    1.171082   -0.443516
C     -1.501877   -2.338765   -0.140521
C      1.960489   -0.692093    0.252739
C      0.943113   -1.714323    0.508612
C      0.264118    0.748538   -0.783434
C     -0.948687    2.017169    0.780718
C     -0.769848   -0.085788   -0.133492
N     -1.530884    3.031655    1.374791
N     -0.031005    2.104589   -0.303669
N     -1.099140    0.634904    1.078581
N      1.586937    0.430439   -0.348036
N     -0.389326   -1.450308    0.100650
O      1.244430   -2.789866    1.071815
H      4.834494    0.808614    0.179097
H     -2.985855   -1.077889    0.811589
H     -3.535650   -1.820599   -0.777118
H      3.826102   -1.514948    1.037212
H     -1.864718   -0.543105   -1.969709
H     -2.675916    0.696571   -0.868629
H      2.810014    2.160835   -0.884964
H     -1.631554   -3.083373    0.670182
H     -1.435757   -2.835047   -1.138476
H      0.200820    0.726436   -1.908210
H     -1.322072    3.998131    1.044985
H      0.370214    2.984091   -0.698132
H     -1.391207    0.241869    1.999203
