51

C      3.995910    3.119743   -1.924733
C      5.407047    1.846564   -0.396972
C     -3.017949   -2.081632   -2.148700
C     -2.046796   -3.900791   -0.875039
C     -4.391580    1.095729    1.438586
C     -4.368452   -0.214116    1.002829
C     -1.984957    1.235258    1.156410
C      4.233664    1.747840   -1.362052
C     -3.213442    1.796947    1.509508
C     -1.955158   -0.064235    0.722908
C     -3.150336   -0.777247    0.650680
C     -0.738774   -0.801900    0.326118
C     -0.909409   -1.660464   -0.872673
C      2.967849    0.013191   -0.045003
C      1.768927   -0.593989    0.415999
C     -2.207057   -2.386446   -0.875249
C     -3.094924    3.441702    3.301102
F     -4.097531    2.878931    4.083810
F     -1.848887    3.006852    3.727699
F     -3.178501    4.807491    3.445494
N      3.034755    1.318555   -0.680833
N      0.450054   -0.013064    0.326094
N      4.047953   -0.653023    0.121515
N      1.881044   -1.752038    0.955473
O      0.103883   -2.648799   -0.830838
O      4.166267   -2.260823    2.256952
O      3.823267   -3.315675    0.031697
O     -3.235837    3.111697    1.946622
O     -3.046294   -2.082426    0.207126
S      3.566451   -2.118883    0.892134
H      4.606001    3.208334   -2.845861
H      2.928288    3.298501   -2.160383
H      4.358771    3.907342   -1.226577
H      5.978198    2.772481   -0.600658
H      6.120101    1.009889   -0.515728
H      5.000279    1.911803    0.629822
H     -2.747923   -2.835578   -2.930812
H     -2.661966   -1.084110   -2.479126
H     -4.099796   -2.082716   -1.944890
H     -1.264759   -4.156724   -1.589481
H     -3.002241   -4.320803   -1.264734
H     -1.921040   -4.312393    0.145706
H     -5.351386    1.521766    1.708864
H     -5.295804   -0.802519    0.936755
H     -1.078331    1.803896    1.227016
H      4.529442    1.025653   -2.169482
H     -0.576765   -1.540676    1.186475
H     -0.841240   -1.090526   -1.835375
H      2.190289    1.930309   -0.627022
H      0.366706    1.014310    0.245144
H     -0.198011   -3.273187   -0.099155
