72

C      0.108667    0.651539   -2.770447
C     -1.117311    0.591321   -1.933002
C      3.507804    4.380459   -0.068341
C      1.863536    4.737963    1.581416
C      3.793557    5.763763   -0.119029
C      2.114800    6.094761    1.557083
C     -3.057124   -2.143031   -0.455372
C     -4.275881   -2.831978   -0.560867
C      3.316525   -3.793221    0.976824
C      4.024145   -2.154627   -0.770508
C      3.482467   -2.689376    1.956055
C      4.165200   -1.132483    0.307804
C     -4.224389   -0.282702    0.442020
C      1.871857   -1.195891    0.911009
C      2.558067    3.866388    0.757826
C      3.059217    6.576705    0.718873
C      4.124159   -3.600071   -0.300144
C     -3.009410   -0.886713    0.031626
C     -5.493164   -2.265157   -0.181073
C      1.560312    0.242787    0.586672
C     -0.738933   -0.281015   -0.590773
C     -5.445927   -0.969948    0.334549
C      0.389477    0.538465   -0.061182
C     -6.758753   -2.935281   -0.429235
C      2.166211    2.399327    0.682919
C     -7.015876    0.764178    1.256323
C     -8.123501   -4.411578   -1.299116
C      3.313086    8.039671    0.543925
C      5.547735   -4.054895   -0.170756
F     -7.812130    1.446721    0.295857
F     -7.802829    0.562937    2.410291
F      4.694530    8.257409    0.499010
F      2.742298    8.441869   -0.665492
F      2.770613    8.757886    1.594694
F      5.640241   -5.385372    0.119729
F      6.286787   -3.319367    0.709805
F      6.121400   -3.800181   -1.436102
N      2.283401    1.291105    0.856302
N     -6.810384   -4.061385   -1.180770
N     -8.000175   -2.658686   -0.128457
N      3.210978   -1.376063    1.428227
O     -8.635957   -5.387830   -1.915667
O     -1.918071   -0.069251    0.142825
O     -6.627695   -0.433287    0.716949
O     -8.809376   -3.534373   -0.640610
S      0.434270    2.289688   -0.220407
H      0.435876    1.715530   -3.022967
H      0.951257    0.056390   -2.353080
H     -0.077458    0.213571   -3.768100
H     -1.905863    0.037037   -2.444517
H     -1.380663    1.547066   -1.488560
H      4.054516    3.681178   -0.708290
H      1.125873    4.312331    2.244676
H      4.580875    6.153791   -0.769649
H      1.513169    6.700726    2.226721
H     -2.138583   -2.655277   -0.756307
H     -4.323919   -3.837854   -0.899251
H      3.772010   -4.722991    1.460961
H      2.258147   -3.976535    0.688540
H      3.083058   -2.075740   -1.310911
H      4.919582   -2.035061   -1.472856
H      2.864343   -2.836263    2.860113
H      4.578799   -2.672041    2.228458
H      5.168864   -1.060927    0.746352
H      3.875667   -0.135653   -0.121001
H     -4.271355    0.703751    0.841650
H      1.678756   -1.760872   -0.001273
H      1.172527   -1.551336    1.743314
H      3.636236   -4.242440   -1.060929
H     -0.508594   -1.211965   -0.905857
H     -6.212837    1.440592    1.558461
H     -8.324737   -1.828186    0.467341
