58

C     -5.890046   -0.873639   -1.937200
C     -7.107360    0.808352   -0.644403
C     -0.152605   -1.890742   -0.931013
C      1.218188   -2.358427   -0.624328
C     -0.278063   -0.407052   -1.203809
C      2.072678   -1.263279    0.002788
C     -0.571837    1.476684    0.375306
C      5.585139    1.902302    1.310186
C     -5.664714    0.235066   -0.896513
C      0.404839    0.470302   -0.233554
C      6.164511    1.251153    0.216992
C      1.246845   -0.250273    0.754935
C     -1.731746    0.841306    1.036949
C     -5.166634   -0.317429    0.386713
C     -3.916628    0.034552    0.949004
C     -3.854606   -0.500035    2.210385
C      5.313175    0.364774   -0.466624
C     -2.666397   -0.340903    2.903958
C      7.522031    1.502412   -0.141106
C      3.495099    0.844722    1.017057
C      5.846738   -0.417355   -1.606165
F      6.912852   -1.240704   -1.253793
F      4.806765   -1.339080   -1.933536
F      6.114334    0.311063   -2.714537
N      4.324191    1.715935    1.697748
N      2.163556    0.623821    1.473173
N     -2.912844    0.689645    0.338675
N     -1.664444    0.325720    2.274984
N      4.092084    0.254011   -0.008918
N     -5.778207   -1.037020    1.319379
N     -4.996938   -1.149701    2.414535
O     -2.575289   -0.802063    4.046555
O      8.021634    0.982496   -1.202859
O      8.434935    2.294533    0.557111
H     -6.619245   -1.612578   -1.675358
H     -4.864852   -1.331054   -2.143909
H     -6.140980   -0.392200   -2.919939
H     -7.100327    1.510274    0.192832
H     -7.756624   -0.046702   -0.327262
H     -7.405467    1.313701   -1.556828
H     -0.847204   -2.231466   -0.118353
H     -0.514022   -2.429828   -1.863429
H      1.195693   -3.178370    0.106087
H      1.729859   -2.738341   -1.563001
H     -1.376949   -0.220798   -1.320691
H      0.138888   -0.199320   -2.238933
H      2.943407   -1.643467    0.529077
H      2.435554   -0.693810   -0.921357
H     -0.991345    2.031296   -0.525528
H     -0.086977    2.228501    1.002489
H      6.236233    2.595465    1.846021
H     -5.067428    1.022277   -1.304165
H      1.148208    1.121803   -0.819221
H      0.612424   -0.836653    1.469702
H      1.850542    1.094969    2.326313
H     -0.736364    0.474930    2.803167
H     -6.710632   -1.464372    1.231309
H      9.116372    2.884594    0.005356
