37

C     -3.204893    2.219159    0.199405
C     -3.023802   -0.758003   -1.391373
C     -3.032893   -0.398735    1.023147
C      3.547351    1.167329    0.277147
C      1.666069    2.720657    0.422665
C     -2.160259    1.392017   -0.511445
C      2.157340    1.379747    0.236908
C      4.092582   -0.084790    0.108179
C      1.332961    0.311149    0.024221
C      1.905412   -0.936378   -0.142578
C     -0.892756   -0.548924   -0.230188
C      1.083096   -2.124474   -0.374036
C      3.282683   -1.172815   -0.106814
C     -0.354115   -1.892305   -0.413802
C     -0.136845    0.510548   -0.022299
C     -2.310041   -0.085215   -0.240283
N      1.590656   -3.288650   -0.530974
O      2.506636    3.670518    0.617699
O      5.469373   -0.241977    0.156446
O      3.777589   -2.452840   -0.282864
O     -1.108252   -2.888280   -0.611291
O     -0.924955    1.647303    0.116589
H      0.961939   -4.107244   -0.693754
H     -4.229288    1.911427   -0.036124
H     -3.029004    2.233942    1.299296
H     -3.066738    3.268267   -0.149517
H     -2.337867   -0.770525   -2.257867
H     -3.997085   -0.290003   -1.621280
H     -3.203137   -1.826766   -1.099859
H     -2.424179   -0.209398    1.930375
H     -3.309064   -1.473379    1.003920
H     -3.966083    0.204512    1.049790
H      4.172548    2.020104    0.445143
H      0.654815    3.026825    0.417076
H     -2.162421    1.652856   -1.572933
H      5.922265   -1.112150    0.042939
H      4.750365   -2.673510   -0.266094
