37

C     -3.156864    2.240424    0.686987
C     -3.157771   -0.907822    1.186215
C     -2.919566   -0.019538   -1.148665
C      3.564758    1.193886   -0.516365
C      1.638051    2.714753   -0.393307
C     -2.033562    1.278926    0.789172
C      2.176184    1.368261   -0.371011
C      4.134754   -0.037517   -0.504647
C      1.337296    0.288042   -0.210229
C      1.954886   -0.970372   -0.202195
C     -0.942262   -0.602433    0.101025
C      1.088299   -2.128655   -0.033507
C      3.312857   -1.163673   -0.342943
C     -0.360306   -1.927385    0.117044
C     -0.125681    0.433360   -0.054720
C     -2.346416   -0.094416    0.232916
N      1.578783   -3.322006   -0.015296
O      2.453208    3.697822   -0.545733
O      5.526090   -0.195122   -0.651348
O      3.969744   -2.354832   -0.343462
O     -1.058659   -2.960113    0.259091
O     -0.929842    1.593708   -0.036579
H     -3.718438    2.176185   -0.247952
H     -3.806519    2.104631    1.593682
H     -2.734454    3.274410    0.804904
H     -4.052796   -0.295375    1.468901
H     -3.515681   -1.823661    0.720104
H     -2.548146   -1.081139    2.096543
H     -2.182356    0.533547   -1.779964
H     -2.935979   -1.072265   -1.547855
H     -3.935890    0.386532   -1.202604
H      4.178856    2.071398   -0.639405
H      0.608620    2.952144   -0.291905
H     -1.687599    1.164184    1.820103
H      0.954576   -4.139880    0.105201
H      5.934452   -1.109394   -0.640980
H      3.737374   -3.266615   -0.261216
