51

C      6.744118   -0.733778    2.046421
C      6.703277    0.835180   -0.563069
C      4.050983    1.631018    0.343792
C     -7.566961   -2.153910    1.590835
C     -6.103004    0.202391   -1.799553
C      6.681571   -1.369037    0.687064
C      2.263509   -0.053289   -0.326508
C      1.334787    0.833416   -0.052770
C      4.590711   -0.591505   -0.434370
C     -1.121581    1.308361    0.017133
C     -1.600270   -1.214413   -0.884246
C      6.034572   -0.450462   -0.342342
C      3.693964    0.306762   -0.143102
C     -6.728891   -1.667546    0.448372
C     -0.088978    0.454849   -0.240941
C     -2.420376    0.887277   -0.181018
C     -2.671067   -0.386654   -0.636964
C     -3.570257    1.726552    0.083248
C     -4.058598   -0.774475   -0.842701
C     -4.824494    1.398772   -0.064699
C     -5.235340    0.047626   -0.547916
Cl    -3.212828    3.366396    0.667993
N     -0.340543   -0.783577   -0.683946
O     -6.659794   -2.388148   -0.567548
O     -4.230561   -1.932595   -1.321496
O     -5.827010    2.349729    0.241016
O     -6.056328   -0.483203    0.493644
H      7.239279   -1.461581    2.721574
H      7.357265    0.182156    2.071013
H      5.722088   -0.573453    2.462246
H      6.079967    1.499995   -1.186373
H      7.642801    0.721726   -1.235462
H      7.157231    1.334365    0.321818
H      3.224086    2.037748    1.038496
H      5.003482    1.730287    0.877838
H      4.037157    2.362945   -0.480206
H     -8.493303   -2.605198    1.137487
H     -6.982326   -2.869063    2.175045
H     -7.852066   -1.285227    2.223654
H     -7.122581    0.510103   -1.561574
H     -6.158633   -0.777263   -2.330936
H     -5.663929    0.926995   -2.500881
H      6.125868   -2.322635    0.777608
H      7.721391   -1.640559    0.406736
H      1.984139   -1.051068   -0.687415
H      1.501558    1.844376    0.297925
H      4.161072   -1.580916   -0.793598
H     -0.904740    2.301883    0.373135
H     -1.815831   -2.215188   -1.242715
H      6.373451   -1.053045   -1.326926
H     -6.118038    2.959156   -0.524820
