41

C      3.417897    0.293948   -0.417921
C      2.390349    1.336366   -0.488719
C     -1.620206    1.661795    1.459954
C     -2.722512   -0.566530   -1.166996
C      3.673227   -2.206645    0.400025
C      3.014793   -1.042981    0.011528
C     -0.256392    2.128647    1.055453
C     -2.238799    0.669522    0.874831
C     -3.240748   -1.592582   -0.171498
C      1.692246   -1.329923    0.084444
C     -0.569400   -0.687375   -0.150515
C      1.477037   -2.595296    0.492464
C     -0.959543   -2.042980    0.280440
C      0.034557    1.905246   -0.382523
C      0.693294   -0.326941   -0.254563
C      0.090111   -3.031672    0.613925
C     -1.256298    1.486009   -1.119106
C     -1.681786    0.222940   -0.431244
N      2.708991   -3.133587    0.686461
N     -2.184440   -2.390608    0.351631
N      1.030157    0.946356   -0.712442
O      0.682273    1.539392    1.899747
O     -0.140723   -4.190391    0.984444
O     -2.180934    2.499306   -0.862956
S     -3.642407   -0.388956    1.186994
H      4.271736    0.592976    0.262400
H      3.936469    0.162087   -1.415398
H      2.420926    1.954763    0.431247
H      2.710951    2.063909   -1.298768
H     -2.099206    2.177988    2.276073
H     -3.515302    0.026085   -1.615354
H     -2.208558   -1.133143   -1.958383
H      4.745367   -2.301751    0.447530
H     -0.234747    3.218625    1.258694
H     -4.129545   -2.113240   -0.505610
H      0.329542    2.894187   -0.841416
H     -1.056456    1.381600   -2.186029
H     -2.435928   -3.302304    0.813672
H      0.969064    0.859136   -1.786531
H      1.137658    2.228738    2.440230
H     -3.052712    2.127286   -0.546216
