48

C      1.319979   -3.674465   -1.055876
C      1.237783   -3.817226    1.373715
C     -4.599511    0.039247   -0.062222
C     -3.983815    2.255572   -1.039443
C      3.879719    1.238436   -0.134788
C      3.768382   -0.093224    0.172725
C      1.587484    1.256901   -0.850812
C      2.788606    1.907257   -0.645159
C      1.458084   -0.077545   -0.548186
C      2.553506   -0.733253   -0.039846
C      0.213152   -0.836490   -0.739522
C      0.132588   -1.932295    0.304449
C     -1.331212    0.677956    0.546343
C     -2.613785    1.231578    0.784561
C      1.323512   -2.844149    0.214250
C      2.562909    4.280570   -0.051664
F      3.435276    4.167003    1.032372
F      1.256061    4.172589    0.420658
F      2.782472    5.488279   -0.643010
N     -0.973793   -0.031354   -0.663776
N     -0.456048    0.826082    1.469064
N     -2.767993    1.827370    1.905506
N     -3.732949    1.181018   -0.109901
O     -1.015226   -2.701997    0.019714
O     -0.623749    3.050535    2.936201
O     -1.363004    0.913071    3.986311
O      2.861833    3.248396   -0.966928
O      2.506142   -2.095339    0.295335
S     -1.254151    1.705418    2.721175
H      1.883791   -3.193771   -1.870413
H      1.800534   -4.669539   -0.879173
H      0.304849   -3.883067   -1.414299
H      2.281413   -4.058920    1.695390
H      0.773633   -4.778060    1.085003
H      0.743165   -3.344113    2.237437
H     -5.635580    0.253506   -0.398099
H     -4.207340   -0.806860   -0.695646
H     -4.693980   -0.401060    0.960416
H     -3.063903    2.495874   -1.601436
H     -4.349009    3.152300   -0.496859
H     -4.750069    1.931344   -1.772139
H      4.831742    1.767170    0.024806
H      4.637385   -0.604828    0.573788
H      0.730667    1.817200   -1.260610
H      0.275221   -1.332112   -1.712728
H      0.067174   -1.523408    1.316066
H     -1.584761    0.037477   -1.504127
H     -0.997184   -3.489073    0.620279
