51

C     -8.030347    0.578050   -0.723561
C     -5.803652    2.327895   -0.950910
C     -4.276241   -1.024318    1.071934
C      7.930935    1.611798    0.983518
C      5.940198   -1.675423   -1.202464
C     -6.639052    0.234935   -0.089277
C     -2.052107   -0.345125    0.017372
C     -1.323053   -1.074491    0.794851
C     -4.192962    0.523333   -0.775160
C      0.836558   -0.397218   -0.242101
C      2.133500   -2.024178    1.529069
C     -5.581608    0.796342   -0.945758
C     -3.529714   -0.242558    0.061771
C      7.091089    0.860289    0.011144
C      0.125154   -1.117195    0.684381
C      2.223562   -0.483394   -0.294513
C      2.853040   -1.314203    0.613215
C      3.045779    0.250532   -1.236457
C      4.289432   -1.411002    0.553622
C      4.370366    0.180900   -1.287212
C      5.163707   -0.647770   -0.393098
Cl     2.240220    1.313657   -2.401428
N      0.802406   -1.924911    1.560106
O      7.385884    0.947550   -1.192770
O      4.870062   -2.202345    1.362530
O      5.052994    0.951958   -2.262848
O      6.038147    0.105402    0.431602
H     -8.266299    1.628241   -0.562828
H     -8.744304   -0.042556   -0.166098
H     -7.997738    0.252383   -1.771068
H     -5.808037    2.618910    0.120012
H     -4.902400    2.831914   -1.390243
H     -6.723424    2.589171   -1.489640
H     -3.599822   -1.422129    1.886654
H     -5.009456   -0.432836    1.649115
H     -4.693448   -1.965661    0.634400
H      8.865947    1.025986    1.133746
H      8.169273    2.626416    0.593835
H      7.415685    1.726277    1.956635
H      6.528500   -1.193334   -2.001047
H      5.209494   -2.357925   -1.682633
H      6.566001   -2.318457   -0.530905
H     -6.642308   -0.856980   -0.053955
H     -6.703863    0.744132    0.905935
H     -1.571451    0.271279   -0.762134
H     -1.777752   -1.677556    1.547111
H     -3.513837    1.061984   -1.490472
H      0.346167    0.250570   -0.950290
H      2.695872   -2.661193    2.216616
H     -5.854512    0.537918   -2.058530
H      5.047416    1.964938   -2.225252
