52

C     -5.489081    2.195470    0.705837
C     -5.731973    1.381852   -1.551200
C      2.404088   -2.966339   -0.605912
C      3.696874   -2.565697    0.092377
C      4.686911    4.378822   -0.548748
C      1.654152   -1.856573   -1.160924
C      3.301876   -1.559822    1.117022
C      3.551912    3.959276    0.060714
C      5.548602    3.426239   -1.123783
C      0.444885   -0.714025    0.692814
C     -4.649436    1.469744   -0.381213
C      1.496231   -0.598151   -0.345918
C      2.779043   -0.316656    0.429836
C     -0.931011   -1.049243    0.399864
C     -4.400348    0.058633    0.020282
C     -3.208692   -0.580580    0.104870
C     -3.512243   -1.905907    0.300600
C     -2.501499   -2.781579    0.535449
C      4.067711    1.724931   -0.428380
N      3.250127    2.637292    0.116455
N      5.196204    2.145823   -1.033370
N      3.815177    0.346596   -0.285512
N     -1.894196   -0.192280    0.160985
N     -1.256441   -2.362081    0.583010
N     -5.417393   -0.859424    0.172502
N     -4.885414   -2.038041    0.337628
O     -2.815506   -4.021682    0.707165
H     -5.509669    3.247459    0.449132
H     -4.963289    2.105709    1.676785
H     -6.494869    1.771514    0.765610
H     -6.661952    1.040277   -1.010586
H     -5.829525    2.390709   -1.931194
H     -5.338659    0.672889   -2.260991
H      1.821531   -3.565850    0.153866
H      2.679699   -3.670632   -1.432304
H      4.128071   -3.493906    0.554889
H      4.474079   -2.196111   -0.605139
H      4.971514    5.426138   -0.615211
H      0.585592   -2.205385   -1.355465
H      2.040362   -1.595389   -2.191934
H      4.164535   -1.242912    1.759333
H      2.530181   -1.980830    1.748034
H      2.867291    4.681370    0.510075
H      6.461482    3.667519   -1.625692
H      0.446627    0.323676    1.252460
H      0.817684   -1.356131    1.574894
H     -3.823748    1.991313   -0.724606
H      1.320462    0.242768   -1.013135
H      2.476612    0.359504    1.295532
H      4.521132   -0.281698   -0.778724
H     -0.472995   -3.071370    0.766816
H     -6.412711   -0.617228    0.152691
