37

C      4.047581   -0.334533    1.351217
C      5.429672    0.611835   -0.599073
C      3.140831   -0.049361   -0.894131
C      1.780589   -0.574240   -0.706342
C     -5.546329   -0.193017    0.734979
C     -5.033307    0.535746    1.768867
C     -1.103945   -0.562392   -1.200067
C      4.111306    0.063021   -0.071939
C     -0.540629    0.178030   -0.176862
C      0.851602    0.598370   -0.285794
C     -4.701561   -0.661425   -0.316861
C     -3.633313    0.847832    1.829306
C     -2.466147   -0.862834   -1.300089
C     -3.271220   -0.369151   -0.288766
C     -2.753766    0.356188    0.740148
C     -1.400331    0.625856    0.787795
O      1.009081    1.614889   -1.283275
O     -5.202187   -1.331508   -1.274802
O     -3.140747    1.513751    2.764147
O     -2.836676   -1.597262   -2.371147
O     -0.917257    1.367819    1.862059
H      5.074457   -0.265218    1.839647
H      3.432524    0.401578    1.950342
H      3.693800   -1.354228    1.544772
H      5.917644   -0.154046   -1.241493
H      6.116506    0.895445    0.203419
H      5.266634    1.481162   -1.273903
H      3.349579    0.300295   -1.948169
H      1.819271   -1.265691    0.208890
H      1.381450   -1.162238   -1.523546
H     -6.633442   -0.399487    0.717560
H     -5.719909    0.849618    2.518356
H     -0.473306   -0.935187   -1.998172
H      1.289095    1.040045    0.634846
H      1.325460    1.140617   -2.084490
H     -3.691515   -1.913098   -2.659538
H      0.028505    1.607514    2.042107
