37

C     -5.492920    0.608807   -0.161576
C     -3.948985   -0.835508    1.263132
C     -3.172117    0.205764   -0.770388
C     -1.822992   -0.393164   -0.556697
C      5.574346   -0.205943    0.536959
C      5.372256    1.097342    0.500010
C      0.850250   -1.179409   -0.180054
C     -4.165404    0.007092    0.067794
C      0.580623    0.154635   -0.227538
C     -0.781938    0.681092   -0.439931
C      4.506417   -1.190145    0.378440
C      4.004913    1.589221    0.288842
C      2.121870   -1.618421    0.016230
C      3.159887   -0.696086    0.170435
C      2.901214    0.654703    0.124611
C      1.596733    1.076733   -0.076642
O     -0.787849    1.459094   -1.593940
O      4.696027   -2.422125    0.413190
O      3.756916    2.827427    0.245125
O      2.396849   -2.959964    0.064554
O      1.397629    2.447076   -0.113450
H     -6.139964   -0.133776   -0.705625
H     -5.996513    0.906042    0.790519
H     -5.469010    1.505971   -0.813639
H     -3.188917   -0.368911    1.943654
H     -4.893297   -1.018582    1.827799
H     -3.570479   -1.856915    0.985236
H     -3.352043    0.826349   -1.640833
H     -1.849121   -0.919090    0.429340
H     -1.612107   -1.145642   -1.310609
H      6.589118   -0.558024    0.693603
H      6.194024    1.798244    0.622474
H      0.016870   -1.861342   -0.304408
H     -1.014178    1.355136    0.409500
H     -0.625472    0.932155   -2.411760
H      1.659781   -3.633933   -0.044848
H      0.507583    2.864098   -0.250970
