69

C     -4.659177   -1.840372    4.281141
C     -5.508155   -0.809659    3.934700
C     -3.478928   -2.000164    3.573251
C     -6.013384    1.045487    2.567033
C     -5.647274    1.885492    1.514961
C     -1.933490   -1.377027    1.867095
C     -1.556990   -0.556238    0.825404
C     -4.128458    2.544530   -0.208668
C      5.570761   -0.638244   -0.010606
C      4.029879   -1.050289    3.270832
C      4.504537   -2.843268   -2.351318
C     -5.145364    0.019877    2.896380
C     -3.119782   -1.167810    2.534895
C     -4.471942    1.708678    0.826783
C     -2.389676    0.476535    0.466068
C     -2.969592    2.369880   -0.889596
C      5.628743   -0.355686    1.474506
C      4.751860   -1.459787    2.018400
C      4.745731   -1.876721   -0.090627
C     -3.970828   -0.134450    2.187683
C     -3.596887    0.687501    1.146987
C     -2.060266    1.331792   -0.575965
C     -0.867289    1.319655   -1.398008
C      2.666813   -1.925106   -3.053913
C     -2.558462    3.225142   -2.039499
C     -1.232085    1.261311   -2.871673
C     -2.297614    2.264603   -3.180784
C      2.947133   -1.479779   -1.778822
C      1.524579   -1.440738   -3.663887
C      1.010643   -0.123967   -1.745793
N      3.647679   -2.767372   -3.381536
N      0.313913    0.679207   -1.053243
N      2.147723   -0.614271   -1.155039
N      0.783355   -0.582193   -2.973912
N      4.080477   -2.050570   -1.354718
O      3.230482    0.053852    3.109562
O      6.929840   -0.471241    1.938806
O     -3.699748    3.946144   -2.404753
O     -0.075863    1.759698   -3.545887
O     -2.005421    3.046752   -4.304443
O      1.237669   -1.880750   -4.937979
O      3.881988   -1.775762    0.976479
H     -4.885085   -2.538436    5.097161
H     -6.423932   -0.701202    4.498084
H     -2.776762   -2.805168    3.815528
H     -6.933506    1.167862    3.121577
H     -6.347771    2.677106    1.282989
H     -1.244606   -2.185856    2.122606
H     -0.647849   -0.700810    0.289969
H     -4.806080    3.366654   -0.486756
H      6.601781   -0.897109   -0.390720
H      5.171670    0.208848   -0.597629
H      4.831824   -0.760371    4.010593
H      3.532472   -1.928243    3.703993
H      5.389704   -3.474011   -2.388527
H      5.177240    0.627606    1.725318
H      5.407776   -2.318053    2.256514
H      5.425015   -2.746942    0.126367
H     -0.519760    2.449781   -1.343729
H     -1.763391    3.927912   -1.833962
H     -1.407148    0.264657   -3.260158
H     -3.245805    1.724238   -3.362126
H      2.387433   -0.295781   -0.189661
H      2.812310    0.249482    3.986253
H      7.569377   -0.812773    1.291752
H     -3.659447    4.884684   -2.061647
H     -0.149617    1.568724   -4.518256
H     -1.139176    3.514281   -4.201440
H      1.396200   -2.871753   -5.134391
