39

C      3.611173   -0.159424   -0.803487
C      4.184508   -0.063922    1.684419
C     -3.660235   -0.547005   -0.946311
C     -2.107320    2.314200   -1.045588
C     -1.969990   -2.089085   -0.203846
C     -0.413329   -2.044469   -0.237985
C      1.896729    0.222053    0.932768
C     -0.887999   -0.330856    1.223650
C      3.154406    0.010737    0.606323
C     -2.611398   -0.733830   -0.196981
C     -1.450242    1.570524    0.043714
C     -2.105628    0.403400    0.626413
C      0.893089    0.295609   -0.122647
C      0.068663    1.590654   -0.004573
C     -0.148929   -0.660452   -0.066145
O      0.720198    2.594876    0.044762
O     -0.787048   -0.236571   -1.287650
H      2.953191   -0.844808   -1.377264
H      3.710343    0.803510   -1.327394
H      4.611562   -0.637216   -0.808593
H      4.676748    0.916835    1.737851
H      3.721367   -0.378346    2.626488
H      4.960635   -0.804184    1.417846
H     -4.181083    0.416489   -0.992088
H     -4.078750   -1.326553   -1.565424
H     -3.105583    2.690089   -0.665494
H     -2.309662    1.880955   -1.998705
H     -1.524203    3.256055   -1.215771
H     -2.273149   -2.612480   -1.132668
H     -2.304390   -2.691567    0.669445
H     -0.048640   -2.662171    0.618640
H     -0.026999   -2.516309   -1.153083
H      1.617839    0.338147    1.959044
H     -0.405929    0.388107    1.876031
H     -1.191281   -1.172870    1.831793
H     -1.564282    2.333491    0.911687
H     -2.872599    0.578213    1.405977
H      1.430137    0.477629   -1.099968
H     -0.181918   -0.569454   -1.965182
