46

C     -1.614792    3.427821    0.008453
C     -3.526545   -0.181910   -1.565138
C     -2.763927   -2.439511   -0.221164
C     -3.092931   -1.301818    1.997448
C      5.272691   -2.340210    0.241562
C      0.871887    3.610511   -0.092464
C     -0.260276    2.818275    0.035360
C     -3.424307   -0.043520   -0.069497
C      2.084848    2.976202   -0.058149
C     -0.159048    1.453698    0.189679
C      2.211035    1.616813    0.094773
C      1.081063    0.836165    0.221172
C      1.183585   -0.547155    0.377962
C     -1.228916   -0.668379    0.469636
C      0.020216   -1.279176    0.500225
C      3.533971    0.976984    0.126486
C      2.508680   -1.143267    0.404343
C     -1.320901    0.680518    0.316642
C      3.644171   -0.462319    0.289382
C     -2.643709   -1.177164    0.567756
O      3.252363    3.725126   -0.182101
O      0.037327   -2.621667    0.655642
O      4.545366    1.728108    0.007327
O      2.651021   -2.499181    0.555842
O      4.889136   -1.010134    0.313255
O     -2.664913    1.081714    0.314458
H     -1.557776    4.538462   -0.086216
H     -2.131557    3.218790    0.960103
H     -2.163682    2.997493   -0.847436
H     -4.435121    0.414759   -1.871618
H     -2.677971    0.282538   -2.097903
H     -3.725801   -1.219740   -1.826299
H     -2.150979   -2.324914   -1.138790
H     -2.315130   -3.278457    0.345462
H     -3.795672   -2.726533   -0.454091
H     -3.887930   -0.549941    2.252124
H     -3.527836   -2.303503    2.188087
H     -2.262373   -1.100593    2.718164
H      4.879916   -2.990602    1.049120
H      6.392551   -2.355335    0.407487
H      5.165643   -2.797105   -0.777273
H      0.761206    4.682618   -0.212714
H     -4.414351    0.014664    0.426286
H      3.219369    4.717593   -0.295651
H      0.681208   -3.324039    0.717895
H      2.859194   -3.112678   -0.229671
