42

C      4.007067   -2.001282    1.015563
C      5.609653   -0.240581    0.091788
C      0.513137    4.165653   -0.942334
C      3.177411   -0.007677   -0.229557
C     -5.566571   -1.182512   -0.292124
C     -5.463242   -0.018097   -0.852905
C      1.773015   -0.483070   -0.126053
C     -0.741855   -1.416526    0.666632
C      4.209392   -0.709205    0.298890
C      0.568236    2.977468   -0.107217
C     -0.596097   -0.208904    0.097481
C     -4.409563   -1.912907    0.287630
C     -4.127524    0.595862   -0.908042
C     -1.992854   -2.031323    0.765819
C      0.732788    0.519501    0.070279
C     -3.065868   -1.339127    0.249865
C     -2.951746   -0.080844   -0.354054
C     -1.702691    0.500280   -0.434224
O      0.531106    3.111189    1.188962
O     -4.578993   -3.027914    0.813959
O     -4.049143    1.721308   -1.454703
O     -2.070205   -3.253771    1.352743
O     -1.510511    1.705239   -0.999673
O      0.655700    1.717370   -0.500025
H      3.164040   -2.577415    0.550044
H      3.801352   -1.798682    2.078266
H      4.895451   -2.659885    0.890762
H      5.581601    0.860757   -0.041646
H      6.225022   -0.541701    0.934439
H      5.970854   -0.644333   -0.892748
H     -0.461921    4.206937   -1.523474
H      0.494306    5.071585   -0.297564
H      1.360916    4.237658   -1.660448
H      3.462901    0.926333   -0.725622
H     -6.547509   -1.639443   -0.247486
H     -6.295347    0.526275   -1.276185
H      1.807943   -1.093323    0.866066
H      1.539299   -1.293857   -0.835272
H      0.103124   -1.975646    1.078499
H      0.802296    0.775907    1.231235
H     -2.792454   -3.841903    1.515071
H     -2.062514    2.360603   -1.418465
