42

C     -3.381569   -2.374130   -1.226673
C     -5.143061   -0.540395   -1.246852
C     -1.892183    3.779202    0.720221
C     -2.741462   -0.042810   -1.244431
C      5.754055   -0.686946    1.347121
C      5.147772   -0.277327    2.458875
C     -1.295563   -0.346363   -1.237344
C      1.449096   -0.488961   -1.026733
C     -3.721043   -0.927436   -1.240234
C     -1.771580    2.293028    0.874410
C      0.772815   -0.062220    0.090914
C      4.988516   -0.866246    0.109406
C      3.712008   -0.008549    2.432263
C      2.823788   -0.756404   -1.043869
C     -0.643727    0.236065    0.031725
C      3.550442   -0.591451    0.102735
C      2.907183   -0.169450    1.234703
C      1.539374    0.093950    1.238879
O     -2.418864    1.660126    1.714504
O      5.552596   -1.249839   -0.933656
O      3.167485    0.375062    3.490998
O      3.459877   -1.184876   -2.203814
O      0.956093    0.507190    2.394571
O     -0.907657    1.642370    0.041964
H     -2.630144   -2.546653   -0.431931
H     -4.282025   -2.981768   -0.906284
H     -3.047655   -2.730268   -2.214029
H     -5.755736   -1.328006   -1.750054
H     -5.470448   -0.441405   -0.183592
H     -5.342807    0.398593   -1.826593
H     -2.640010    4.069622   -0.034785
H     -2.066063    4.220783    1.723962
H     -0.912739    4.225143    0.377252
H     -3.034523    1.004275   -1.256968
H      6.814301   -0.888634    1.352781
H      5.728498   -0.148637    3.366628
H     -1.145083   -1.425147   -1.202770
H     -0.801170    0.053728   -2.156993
H      0.964489   -0.648132   -1.951952
H     -1.206757   -0.210967    0.856385
H      2.986429   -1.325478   -3.091546
H     -0.022948    0.689365    2.450808
