49

C     -3.183094    1.461416    2.611831
C      0.809352    0.096717    0.219523
C     -1.215988   -0.452443    1.476349
C      3.309773   -1.644817   -0.387393
C     -2.981697    2.459274   -0.920095
C     -3.194405    1.070938    1.175819
C     -0.364319    0.683253    0.946474
C      1.496677    1.053823   -0.702536
C      3.505366   -0.410140   -0.957852
C     -2.395097    2.128694    0.420966
C     -2.596076   -0.255317    0.862751
C      4.352753   -2.314782    0.266876
C      2.404391    0.268611   -1.633969
C     -0.775580    1.998802   -1.182357
C      5.743036   -0.546523   -0.217072
N     -1.803479    2.509588   -1.778010
N      0.587816    1.799068   -1.552491
N      4.741093    0.118814   -0.856674
N      5.560389   -1.751671    0.342223
N     -1.134088    1.564619    0.100175
O      4.162503   -3.562216    0.845439
O      1.731462   -0.616125   -2.447755
O      7.019054    0.014784   -0.120289
O     -2.660591   -3.455242   -0.469831
O     -3.598489   -1.385003   -1.617180
O     -5.131417   -2.836750   -0.305119
O     -3.412535   -1.335335    1.006085
S     -3.777199   -2.198591   -0.343058
H     -4.211826    1.632152    3.028776
H     -2.645891    2.422712    2.810888
H     -2.711180    0.718189    3.282632
H      0.465622   -0.780068   -0.364686
H      1.553504   -0.271281    0.949516
H     -0.851402   -1.436181    1.085814
H     -1.228906   -0.523181    2.558785
H      2.379380   -2.194440   -0.386444
H     -3.709951    1.684604   -1.266917
H     -3.500135    3.447322   -0.872958
H     -4.253811    1.070299    0.830358
H     -0.019053    1.269731    1.816251
H      2.149649    1.774609   -0.169879
H     -2.331925    3.046761    1.043169
H     -2.365355   -0.239349   -0.249771
H      2.904572    0.993883   -2.363764
H      0.921377    2.202138   -2.453090
H      4.776672   -4.347653    0.691799
H      1.444946   -1.449461   -2.010760
H      7.095343    0.853687    0.441044
H     -3.061240   -4.337923   -0.292749
