31

C     -2.818763   -1.027253    0.215972
C     -1.632350   -1.537011    0.493655
C     -1.274927    0.681118    0.016643
C     -3.647311    1.056788   -0.702793
C      1.114216   -1.754871    1.550325
C     -2.778184    0.476714    0.358353
C     -0.741842   -0.394922    0.836927
C      2.821347   -0.859087    0.545939
C      1.654109   -0.158683    0.217240
C      4.029533   -0.490339    0.040209
C      2.975112    1.250103   -1.113533
N      2.994858    2.265076   -1.902197
N      2.417318   -1.824767    1.366569
N      1.775269    0.879357   -0.607777
N      4.091012    0.565518   -0.787691
N      0.622568   -0.704989    0.828031
O     -3.221250    0.713060   -1.978532
O      5.170326   -1.209493    0.388247
H     -3.669040   -1.642398   -0.068677
H     -1.294410   -2.569992    0.494244
H     -1.088754    1.719927    0.344639
H     -1.268662    0.527008   -1.078531
H     -4.679237    0.719265   -0.563076
H     -3.620346    2.168682   -0.595285
H      0.562776   -2.448774    2.187657
H     -3.012124    0.775030    1.373320
H     -1.016786   -0.159642    1.918788
H      2.131250    2.783150   -2.145294
H      0.922675    1.413346   -0.865264
H     -3.138668   -0.272046   -2.031593
H      5.620287   -0.939876    1.263483
