24

C     -3.668625    0.355036   -0.061983
C      3.695491    0.117313   -0.122193
C      3.403856   -1.227064   -0.026923
C      2.654720    1.037040   -0.125843
C      2.087358   -1.614675    0.061679
C     -2.701343   -0.726850    0.245911
C      1.336830    0.614439   -0.035066
C      1.030875   -0.727867    0.060789
C     -1.290173   -0.244643    0.146911
C      0.284851    1.508458   -0.036602
N     -0.254679   -1.100042    0.146944
N     -1.000334    1.064376    0.053857
O     -2.898041   -1.811153   -0.607568
O      0.549472    2.871512   -0.131651
H     -3.234357    1.374609    0.040022
H     -4.077965    0.235472   -1.101700
H     -4.530580    0.304246    0.635076
H      4.710448    0.482743   -0.194512
H      4.235739   -1.931735   -0.025843
H      2.867974    2.099433   -0.200271
H      1.875365   -2.666433    0.135410
H     -2.877592   -1.085535    1.281399
H     -2.153041   -2.452004   -0.530101
H     -0.046249    3.523324    0.392258
