24

C     -3.473059    0.210136   -0.796948
C      3.601629    0.104914   -0.206997
C      3.244642   -1.035734   -0.883547
C      2.630798    0.864367    0.407384
C      1.943626   -1.453674   -0.972700
C     -2.678244   -0.711003    0.126307
C      1.296033    0.470329    0.337994
C      0.968647   -0.677886   -0.347376
C     -1.263204   -0.289336    0.202326
C      0.320080    1.233840    0.955648
N     -0.327812   -1.020584   -0.389323
N     -0.944440    0.830866    0.871058
O     -3.296676   -0.607636    1.383800
O      0.701190    2.386113    1.636305
H     -2.922010    0.434402   -1.730037
H     -3.665609    1.190109   -0.307233
H     -4.442430   -0.276706   -0.983427
H      4.632313    0.408224   -0.154033
H      4.030999   -1.612292   -1.356675
H      2.919910    1.765725    0.941077
H      1.656778   -2.347135   -1.501647
H     -2.795175   -1.730267   -0.276620
H     -3.053879   -1.348457    1.978203
H      0.915892    3.211683    1.066461
