41

C      0.039824    2.205115   -0.533047
C     -1.272616    2.205685   -0.678821
C     -0.574143   -0.015112   -0.715172
C      1.798743    0.494070   -0.092695
C     -4.006146    1.449111   -1.085030
C      0.636809    0.931224   -0.939796
C     -1.659342    0.871836   -1.217748
C     -4.946948   -0.322702   -0.331641
C     -3.568005   -0.571259   -0.442530
C     -5.771341   -1.306575    0.130243
C     -3.928653   -2.717971    0.359156
N     -3.437689   -3.850494    0.684445
N     -5.171278    0.922219   -0.734061
N     -3.080712   -1.771543   -0.093029
N     -5.249909   -2.495522    0.470840
N     -3.002387    0.526114   -0.906688
O     -7.135567   -1.054128    0.237618
O      6.671688   -2.230454    1.044640
O      6.995079    0.489398    0.819754
O      6.202121   -0.960880   -1.176427
O      5.499398    1.922374    0.172946
O      3.866685    1.538624    2.163841
O      2.775743    1.470749   -0.180035
O      4.442369   -0.559920    0.759859
P      6.045021   -0.840668    0.333353
P      4.149882    1.087987    0.741935
H      0.658294    3.039703   -0.154265
H     -1.891304    3.062561   -0.429055
H     -0.418176   -0.914942   -1.362376
H     -0.567107   -0.216709    0.356618
H      1.441506    0.431352    0.959088
H      2.157678   -0.466147   -0.477039
H     -3.890899    2.455284   -1.452834
H      0.852324    0.857729   -2.024468
H     -1.513960    0.950322   -2.326480
H     -4.057864   -4.600789    1.035460
H     -2.068774   -1.942710   -0.177781
H     -7.460595   -0.164305    0.618708
H      7.275383   -2.689849    0.398386
H      7.864556    0.506635    0.333806
H      5.300316    2.274586   -0.751251
