33

C      1.715939   -0.732450    0.262118
C      0.754202    1.392146    0.123943
C      3.768012   -0.030581   -1.001344
C     -0.686680   -1.943544    0.869115
C      2.874887    0.197067    0.195451
C      0.574167    0.129588    0.832497
C     -2.689005   -1.342647    0.238157
C     -1.838620   -0.231189    0.264130
C     -4.007394   -1.175066   -0.136744
C     -3.650081    1.090855   -0.444180
C      2.283942    1.560345    0.088863
F      2.727523    2.364438    1.122806
F      2.638209    2.209720   -1.084927
N     -4.119174    2.253201   -0.772728
N     -1.927054   -2.364103    0.618638
N     -2.363522    0.935610   -0.079800
N     -4.508454    0.031815   -0.481540
N     -0.615080   -0.615640    0.652726
O      4.309909   -1.308775   -1.019845
O     -4.848640   -2.279704   -0.161553
H      1.872285   -1.612858    0.914934
H      1.382056   -1.066695   -0.762801
H      0.423141    2.307110    0.686912
H      0.438913    1.379251   -0.921205
H      4.630104    0.681020   -0.890881
H      3.239916    0.248444   -1.913422
H      0.101170   -2.626768    1.196481
H      3.455110    0.109740    1.144159
H      0.838459    0.246289    1.909869
H     -3.488090    3.080416   -0.753867
H     -1.763264    1.772485   -0.070478
H      3.628733   -1.971924   -1.300970
H     -5.151617   -2.687597   -1.028564
