72

C      2.444361   -1.780331    0.349006
C     -3.256576   -0.166599    2.271769
C     -1.330517   -2.930407    1.344137
C      1.318502   -0.262550   -1.195705
C      3.550790    0.340178   -0.497122
C      0.116550   -1.112114   -1.227596
C      3.872195    0.873788    0.890407
C     -4.510681    1.861946    0.291722
C      2.380064   -0.557409   -0.483182
C     -2.693671    0.063254    0.926168
C     -1.094136   -0.375804   -0.754500
C     -3.324306    1.000646    0.094025
C      5.051998    1.771859    0.842639
C     -2.842700    1.252133   -1.162670
C     -1.708709    0.541889   -1.574242
C     -1.589598   -0.619220    0.508118
C     -3.677271    2.255471   -1.797512
O      4.991404    2.958619    0.393443
O      6.310091    1.371267    1.289295
O     -1.261482    0.830405   -2.850502
O     -3.497336    2.710839   -2.973386
O     -0.955095   -1.565433    1.351191
O     -4.650878    2.582509   -0.889463
C     -3.430528    1.717842   -0.633113
C     -1.612572   -1.253396   -1.403649
C      1.003476   -2.095571   -0.507373
C     -1.041089   -0.821943   -0.050019
C     -2.791434    0.365095   -0.435543
C      2.595959   -0.723694    0.092585
C      1.347529   -0.129911    0.297461
C      3.772499   -0.064276    0.392593
C      2.451120    1.761796    1.093864
N      2.334758    2.958494    1.574635
N      2.337910   -1.927200   -0.401527
N      1.302209    1.102504    0.794688
N      3.659984    1.179253    0.892417
N      0.375516   -0.984653   -0.075769
O     -3.591080    2.283562    0.634896
O      5.011097   -0.653191    0.189415
O     -2.585219   -0.290893   -1.649669
O     -1.479728    0.473880    0.037549
H      1.785237   -1.671052    1.231145
H      3.475432   -1.964584    0.729516
H      2.146188   -2.700052   -0.193957
H     -4.228783    0.387152    2.394595
H     -3.403056   -1.230437    2.469332
H     -2.569890    0.285344    3.037718
H     -1.788672   -3.193920    0.348583
H     -2.070867   -3.190335    2.113332
H     -0.465210   -3.607356    1.497453
H      1.340020    0.651258   -1.783003
H      3.405740    1.226047   -1.150338
H      4.477134   -0.169398   -0.840494
H     -0.032270   -1.461662   -2.268843
H      0.279549   -1.978099   -0.563417
H      4.039383    0.082572    1.626584
H      3.011859    1.502313    1.241056
H     -4.311596    2.633571    1.098647
H     -5.415204    1.265392    0.554637
H      7.164532    1.654820    0.834262
H     -0.482523    0.433491   -3.318501
H     -4.448634    1.538435   -1.035559
H     -2.883829    2.358998   -1.320799
H     -0.824907   -1.255072   -2.188810
H     -2.108508   -2.251035   -1.329238
H      0.496776   -2.995820   -0.885849
H     -1.561649   -1.436068    0.704611
H     -3.338155   -0.246494    0.300877
H      3.217837    3.464617    1.804338
H      0.382995    1.551771    0.950404
H     -3.972330    1.554174    1.219967
H      5.379998   -1.261245    0.936616
