31

C      1.642062    0.455131   -0.470146
C      0.859077   -0.576251    1.452657
C      3.541782   -1.120321   -0.814467
C     -0.940755    2.412213    0.418090
C      2.787179   -0.320628    0.198641
C      0.781531    0.706854    0.750251
C      2.004398   -1.166610    1.139836
C     -2.668070    1.238227   -0.163727
C     -1.594690    0.396864    0.062312
C     -3.911483    0.780088   -0.549192
C     -3.007017   -1.367202   -0.482829
F      2.385242   -2.372691    1.623689
N     -3.182090   -2.630580   -0.640559
N     -2.240576    2.491043    0.063277
N     -1.790926   -0.913229   -0.105325
N     -4.053102   -0.544393   -0.702871
N     -0.544125    1.126033    0.417486
O      4.061626   -0.231840   -1.759648
O     -4.967877    1.661044   -0.767088
H      1.134595   -0.223011   -1.165926
H      2.008348    1.390140   -0.931673
H      0.119308   -0.986528    2.115551
H      2.842218   -1.808783   -1.303264
H      4.386650   -1.607639   -0.317324
H     -0.360768    3.299796    0.656014
H      3.388400    0.433740    0.725731
H      1.330432    1.481709    1.357740
H     -2.413459   -3.314714   -0.485755
H     -0.986572   -1.554285    0.063085
H      4.582157    0.485837   -1.308389
H     -5.193496    2.379986   -0.090240
