59

C     -2.784906    0.097782    1.440050
C     -1.668162   -0.012461    2.137193
C     -1.390140   -1.270142    0.178193
C     -2.535062    0.555754   -0.999916
C      0.372512    1.613844    1.158491
C     -2.645990   -0.456162    0.089934
C     -0.630098   -0.669022    1.309792
C      2.128448    1.202058   -0.103863
C      1.415931    0.030318    0.105113
C      3.284857    1.243898   -0.863935
C      3.051831   -1.040955   -1.225822
N      3.499621   -2.121239   -1.768206
N      1.450783    2.152778    0.562668
N      1.927849   -1.080064   -0.486725
N      3.738637    0.116978   -1.420879
N      0.351771    0.302546    0.875238
O     -2.408479   -0.081555   -2.231240
O      4.001336    2.414496   -1.075870
C      4.022367    1.228265    0.257816
C     -2.848276   -0.518307   -0.673052
C     -1.610924   -0.671418   -1.130186
C      1.590999    0.653816   -0.030875
C     -3.802503    0.210011    1.506180
C      2.916375    0.241013    0.103711
C     -2.755718    0.467467    0.453657
C     -0.767054    0.198230   -0.307651
C      3.228875   -1.104187    0.096304
C      0.913633   -1.530947   -0.174799
N      2.193987   -1.954315   -0.045555
N      0.588169   -0.225312   -0.170078
O     -5.041513    0.483272    0.934037
O      4.540571   -1.565637    0.227836
O     -0.043251   -2.351004   -0.307028
O     -1.461630    0.226576    0.911181
H     -3.688257    0.559700    1.867487
H     -1.476421    0.310203    3.166489
H     -1.703582   -2.299752    0.466938
H     -0.820743   -1.286531   -0.774516
H     -1.632477    1.187745   -0.882578
H     -3.431188    1.206926   -1.074464
H     -0.323130    2.199520    1.754338
H     -3.550320   -1.094937   -0.093680
H     -0.144857   -1.515569    1.859612
H      3.048779   -3.034651   -1.674846
H      1.428462   -2.003497   -0.362703
H     -3.250690   -0.088720   -2.745901
H      4.383683    2.860711   -0.228750
H      4.870076    1.006478   -0.431782
H      3.608582    2.215952   -0.043270
H      4.337453    1.270251    1.318975
H     -3.751339   -1.004072   -1.034983
H     -1.351916   -1.324648   -1.949281
H      1.353710    1.723928   -0.023733
H     -3.749362   -0.858784    1.796842
H     -3.610646    0.902950    2.338558
H     -2.838139    1.491379    0.034896
H     -0.857289    1.238716   -0.722624
H     -4.963244    0.861574    0.012432
H      5.288007   -1.311246   -0.390031
