30

C     -1.995079    0.279442   -0.969000
C     -3.218970    1.461254    0.849492
C      2.777063    1.571616   -1.355557
C      1.571620   -1.721462    1.392329
C     -2.374664    0.273026    0.498333
C     -0.934956   -0.807986   -0.957392
C      3.030237   -0.448959    0.397328
C      1.768219   -0.086770    0.001220
C      4.160602    0.183161   -0.069620
C     -0.537629   -0.848222    0.500150
N      1.690720    0.935374   -0.882105
N      4.003199    1.193750   -0.948393
N      2.885596   -1.465003    1.260459
N      0.878714   -0.874314    0.617913
O     -4.447496    1.305965    0.208481
O     -1.593640   -2.005399   -1.246437
O      5.388869   -0.250545    0.385662
O     -1.109193    0.307233    1.082257
H     -1.527004    1.265620   -1.165989
H     -2.829206    0.051539   -1.635888
H     -3.396704    1.564569    1.915168
H     -2.739838    2.357370    0.376742
H      2.660704    2.390974   -2.067288
H      1.157548   -2.512107    2.043692
H     -2.847282   -0.690296    0.738277
H     -0.102297   -0.600001   -1.626209
H     -1.012311   -1.701482    1.025440
H     -4.849854    0.447662    0.541753
H     -2.581315   -1.928959   -1.081575
H      6.124345    0.352951    0.725587
