72

C      2.719907    0.878034   -0.927655
C     -4.356608    1.399435   -0.871472
C     -1.483668    2.630491   -2.249877
C      1.328828   -1.061587   -1.149680
C      3.634222   -1.525413   -0.409719
C      0.205188   -0.238507   -1.583049
C      4.175311   -1.342939    0.955085
C     -4.431226   -0.369199    1.662899
C      2.555853   -0.593492   -0.821338
C     -3.225779    0.550120   -0.429078
C     -0.997482   -0.275403   -0.745597
C     -3.310464   -0.231957    0.721602
C      4.773792   -0.026622    1.232837
C     -2.276067   -1.033522    1.159421
C     -1.095209   -1.048231    0.400897
C     -2.055269    0.510075   -1.146567
C     -2.688369   -1.714859    2.375822
O      4.089745    0.842905    1.839279
O      6.071889    0.329348    0.862048
O     -0.039956   -1.845143    0.821111
O     -1.988343   -2.515934    3.030891
O     -1.967087    1.299863   -2.311302
O     -3.980033   -1.289845    2.628680
C     -3.228672    1.125778   -1.168406
C     -1.860072   -0.871439    1.106837
C      1.063271   -2.401456    0.691743
C     -0.975487   -1.275024   -0.071220
C     -2.712143   -0.257880   -0.868980
C      2.540448   -0.784107    0.615542
C      1.305532   -0.307921    0.206662
C      3.665371    0.028396    0.665860
C      2.313818    1.756416   -0.093597
N      2.200049    3.007343   -0.443269
N      2.343858   -2.078847    0.904718
N      1.219756    0.975247   -0.144871
N      3.519726    1.308671    0.301218
N      0.407852   -1.301204    0.255661
O     -2.663576    2.035573   -0.287607
O      4.876837   -0.482941    1.078401
O     -3.043853   -0.606101    0.418201
O     -1.335027   -0.309683   -0.994606
H      2.381926    1.280305   -1.906344
H      3.826913    1.090675   -0.838764
H      2.245167    1.404020   -0.080645
H     -4.339623    1.467465   -1.985599
H     -4.262611    2.445017   -0.511724
H     -5.348340    0.981855   -0.602155
H     -2.369996    3.292447   -2.332353
H     -0.909525    2.775597   -1.324578
H     -0.832049    2.768972   -3.159213
H      1.210976   -2.138581   -1.081154
H      4.495921   -1.471884   -1.121167
H      3.219589   -2.566465   -0.471646
H     -0.121169   -0.621985   -2.599599
H      0.440071    0.829896   -1.779119
H      5.021219   -2.088364    1.063678
H      3.458249   -1.657246    1.752514
H     -4.545953    0.617309    2.187621
H     -5.390780   -0.668159    1.181956
H      6.305933    1.322494    0.712700
H     -0.145091   -2.390987    1.656894
H     -2.938360    1.439866   -2.195786
H     -4.345017    1.109410   -1.109408
H     -1.482355    0.055899    1.588085
H     -1.930777   -1.724305    1.787949
H      0.618004   -3.374162    0.840126
H     -1.351039   -2.245904   -0.422858
H     -3.202373   -0.992757   -1.564055
H      3.002452    3.661070   -0.426554
H      0.281242    1.333667   -0.454716
H     -3.380275    2.642067    0.050639
H      5.090811   -1.465672    0.945623
