59

C      2.257862    1.245874   -0.478273
C      0.947276    1.040997   -0.465869
C      1.913823   -0.735440    0.675735
C      4.276664   -0.047642    0.186768
C     -0.610930   -2.073108    0.014931
C      2.897841    0.418845    0.566019
C      0.620862    0.037103    0.616801
C     -2.629762   -1.300496   -0.163099
C     -1.755835   -0.268526    0.175043
C     -3.974688   -1.007501   -0.324063
C     -3.585849    1.236719    0.167452
N     -3.980317    2.460399    0.337620
N     -1.877839   -2.396866   -0.251287
N     -2.287007    0.959864    0.324064
N     -4.432364    0.248712   -0.157870
N     -0.510543   -0.766937    0.280685
O      5.059627    1.080008   -0.027333
O     -4.838996   -2.045150   -0.661737
C     -3.970837    1.057332   -0.464920
C      2.389822    1.377233   -0.288083
C      1.070598    1.368998   -0.088920
C     -1.574582    0.474906   -0.040963
C      4.064663   -0.383469   -0.717495
C     -2.888665    0.053452   -0.276648
C      2.839117   -0.014655    0.064071
C      0.736961    0.015480    0.368412
C     -3.173612   -1.285629   -0.333147
C     -0.889909   -1.709894    0.071446
N     -2.156142   -2.147763   -0.155793
N     -0.582669   -0.412383    0.131729
O      5.107453    0.414357   -0.246169
O     -4.479669   -1.720012   -0.567458
O     -0.019801   -2.592524    0.222486
O      1.712498   -0.749176   -0.314901
H      2.779192    1.911566   -1.145076
H      0.172196    1.487020   -1.101155
H      2.034574   -1.305416    1.602166
H      1.985567   -1.351428   -0.244631
H      4.698147   -0.570511    1.070902
H      4.196336   -0.686510   -0.704500
H      0.213925   -2.770275    0.014775
H      2.885678    0.988277    1.511616
H      0.515050    0.568381    1.591216
H     -4.968630    2.758768    0.235212
H     -1.634449    1.758478    0.581910
H      4.754389    1.865487    0.501626
H     -5.121799   -2.740692    0.010264
H     -4.446717    0.815367   -1.450162
H     -3.508104    2.059778   -0.606910
H     -4.690581    1.080805    0.353059
H      3.010189    2.189474   -0.625161
H      0.465053    2.248378   -0.263439
H     -1.428985    1.534292   -0.010475
H      3.927796   -0.121341   -1.784608
H      4.302035   -1.433319   -0.545916
H      2.974312   -0.153724    1.139013
H      1.047746   -0.050280    1.449152
H      5.074872    0.489977    0.758155
H     -4.912843   -2.405659    0.043174
