63

C      3.768135    1.216148    0.601868
C     -3.317745    2.438698   -0.718213
C     -2.090537    2.742096   -0.164803
C     -1.029116   -3.332628    0.114519
C     -1.558220   -2.589267    1.302567
C      3.363497   -1.110289   -0.256521
C     -3.619231    1.154747   -1.054431
C      2.488377   -2.133656   -0.644257
C      2.887530    0.115109    0.185632
C     -1.485364   -1.979081   -0.107528
C     -1.212758    1.707136    0.023725
C      1.523808    0.283034    0.227423
C     -1.531022    0.416646   -0.320504
C      0.679861   -0.761625   -0.167488
C      0.025636    2.189492    0.613002
N     -2.733249    0.166658   -0.854805
N      1.165648   -1.919029   -0.584747
N      1.176078    1.577433    0.692800
N     -0.741865   -0.780654   -0.194795
O      0.007133    3.448899    1.162888
C     -3.488426    1.393034   -0.264082
C     -1.733859   -1.550850   -0.815846
C      1.001483   -2.233135   -0.459610
C     -0.912810   -0.927687    0.320224
C     -2.759865    0.156920    0.200802
C      2.616393   -0.780825   -0.458077
C      1.463150   -0.162503   -0.031691
C      3.818106   -0.070494   -0.552599
C      2.649188    1.812734    0.204029
N      2.631498    3.080361    0.535441
N      2.307177   -2.048986   -0.714033
N      1.483512    1.135729    0.298820
N      3.787935    1.228810   -0.210123
N      0.466209   -1.068525   -0.035084
O     -4.834593    1.051688   -0.388042
O      4.962322   -0.717252   -0.984241
O     -2.921496   -0.848510   -0.723728
O     -1.373159    0.379170    0.287567
H      3.569582    2.155989    0.054495
H      4.827457    0.916431    0.402408
H      3.707563    1.344159    1.708088
H     -4.066095    3.200819   -0.898859
H     -1.842724    3.752368    0.104080
H     -0.014694   -3.722420    0.175456
H     -1.742196   -4.158159   -0.204394
H     -2.548563   -2.804578    1.719812
H     -0.808752   -2.284245    2.034963
H      4.433138   -1.230591   -0.285069
H     -4.582653    0.925891   -1.487309
H      2.934260   -3.061471   -0.977842
H     -2.511131   -1.874643   -0.591151
H      0.878210    3.990582    1.189249
H     -3.147778    1.759437   -1.244439
H     -3.393424    2.233986    0.444873
H     -1.840154   -2.637101   -0.694646
H     -1.175425   -1.281124   -1.759354
H      0.471338   -3.189456   -0.583939
H     -1.203729   -1.475980    1.236864
H     -3.107426   -0.092644    1.206789
H      3.517218    3.617556    0.469292
H      0.602790    1.583283    0.618066
H     -5.297055    1.066392    0.493263
H      5.410881   -1.414028   -0.377348
