63

C      4.024087   -0.497971    0.180664
C     -2.236259    3.342800   -1.298026
C     -0.902035    3.019951   -1.404971
C     -2.967001   -1.532237   -0.224686
C     -1.962152   -2.478203    0.306179
C      2.623322   -2.086244    1.535843
C     -3.045999    2.460171   -0.616995
C      1.404731   -2.535720    1.998469
C      2.722762   -0.985296    0.680358
C     -2.017348   -1.065921    0.845059
C     -0.417056    1.855961   -0.845958
C      1.574241   -0.316600    0.277089
C     -1.257466    0.985872   -0.165386
C      0.375334   -0.804180    0.767103
C      1.027251    1.678468   -1.060240
N     -2.557174    1.312949   -0.068397
N      0.309971   -1.870477    1.592683
N      1.826106    0.781231   -0.590816
N     -0.896952   -0.240593    0.456642
O      1.551800    2.653619   -1.903002
C     -3.855749    0.838465    1.092359
C     -1.354195   -1.209949   -0.017179
C      0.726833    1.779385   -0.470895
C     -0.961339    0.030936   -0.692396
C     -3.005678    0.303099   -0.066099
C      2.564351    0.729419   -0.089828
C      1.518267   -0.190899   -0.234882
C      3.833535    0.269277    0.160540
C      2.997403   -1.926225    0.113377
N      3.303179   -3.180546    0.227567
N      2.034816    1.947453   -0.242986
N      1.751842   -1.489818   -0.131606
N      4.035234   -1.054806    0.259301
N      0.385965    0.478667   -0.470720
O     -4.134734    2.173511    0.834169
O      4.855145    1.187025    0.301341
O     -2.741132   -1.013059    0.206273
O     -1.818276    0.984325   -0.140311
H      4.286447   -0.931795   -0.822137
H      4.065272    0.609482    0.115106
H      4.812673   -0.842029    0.875661
H     -2.628785    4.268483   -1.741098
H     -0.257744    3.700855   -1.934646
H     -2.815576   -1.022777   -1.205082
H     -4.013381   -1.619723    0.084345
H     -1.088561   -2.802542   -0.261742
H     -2.369310   -3.281227    0.975475
H      3.525218   -2.590788    1.836707
H     -4.094244    2.691952   -0.520486
H      1.384424   -3.391654    2.658079
H     -2.416645   -0.911294    1.877164
H      2.430046    2.445480   -2.398958
H     -3.243351    0.767026    2.022603
H     -4.786280    0.274071    1.174105
H     -1.346398   -2.119573   -0.689780
H     -0.927032   -1.403732    0.969473
H      0.058502    2.630666   -0.631755
H     -1.223640   -0.033521   -1.768546
H     -3.568618    0.472951   -1.002954
H      2.614458   -3.944193    0.139448
H      0.996651   -2.169888   -0.236069
H     -3.345365    2.748231    1.063066
H      4.635605    2.121702    0.664915
