29

C      2.202837   -1.512129   -0.158162
C      1.002928   -1.566599   -0.726460
C      1.304936    0.623163    0.000894
C      3.474166    0.163961    1.169483
C     -2.350330   -0.161273    2.327298
C     -1.676174    0.171988   -2.037465
C      2.643048   -0.108073   -0.052072
C      0.547492   -0.165061   -1.047434
C     -2.961878    0.149753   -0.283234
C     -1.637921   -0.030533    0.087280
C     -3.964465    0.173918    0.639678
N     -1.372911   -0.181484    1.391726
N     -3.629100    0.014708    1.949649
N     -2.960060    0.273077   -1.606713
N     -0.858383   -0.016209   -0.985322
O      3.812641    1.534178    1.126186
O     -5.269659    0.354594    0.242924
H      2.781075   -2.361072    0.180451
H      0.470431   -2.492620   -0.911907
H      0.880334    0.471005    0.993578
H      1.413657    1.688212   -0.279556
H      4.427961   -0.388284    1.048267
H      2.950871   -0.029417    2.103641
H     -2.144621   -0.282418    3.382500
H     -1.368237    0.234087   -3.065950
H      3.150826    0.199808   -0.963669
H      0.989462    0.140649   -2.032690
H      3.875718    1.851754    0.181164
H     -5.734647    1.250316    0.205775
