29

C      1.246593   -0.030666    1.206585
C      4.235931   -0.089186   -0.682979
C     -0.603609   -1.881178   -0.978641
C      2.563682    0.175942    1.130878
C      2.872370    0.419325   -0.286633
C      0.753318    0.090488   -0.190480
C     -2.608673   -1.161282   -0.522988
C     -1.674597   -0.207940   -0.160531
C     -3.955741   -0.914508   -0.322486
C     -3.467517    1.159145    0.569540
F      3.379821    0.145367    2.222653
N     -3.863434    2.288719    1.099872
N     -1.922797   -2.184670   -1.025429
N     -2.154518    0.930034    0.379203
N     -4.379395    0.250582    0.225567
N     -0.430483   -0.664423   -0.447626
O      5.175266    0.678145    0.003430
O     -4.895712   -1.866277   -0.683852
O      1.848567   -0.295437   -0.930608
H      0.641680   -0.241985    2.077245
H      4.381285   -0.037810   -1.760109
H      4.325113   -1.131770   -0.288983
H      0.204964   -2.517030   -1.316487
H      2.758868    1.491916   -0.546669
H      0.576945    1.171612   -0.403289
H     -3.192163    3.025979    1.383591
H     -1.471190    1.652387    0.655459
H      4.923062    1.647244    0.016255
H     -5.267637   -1.902721   -1.612091
