29

C      1.331842   -0.725547    1.466729
C      3.235140    1.374413   -0.632036
C     -1.161540   -2.531209    0.141551
C      2.413860    0.023897    1.282030
C      2.650277    0.054083   -0.192554
C      0.894358   -1.163277    0.094824
C     -2.701556   -0.974861   -0.085150
C     -1.444097   -0.397790   -0.087406
C     -3.807073   -0.178297   -0.215387
C     -2.433455    1.730917   -0.347528
F      3.153739    0.636889    2.235218
N     -2.264005    3.004681   -0.469120
N     -2.489784   -2.309094    0.059608
N     -1.332056    0.939583   -0.218007
N     -3.642677    1.139865   -0.341696
N     -0.517687   -1.362458    0.051850
O      4.530729    1.432638   -0.069433
O     -5.048668   -0.791065   -0.208803
O      1.358974   -0.132004   -0.684865
H      0.839591   -0.987685    2.397138
H      2.685332    2.216644   -0.213414
H      3.331276    1.364744   -1.723297
H     -0.646248   -3.482300    0.261034
H      3.284589   -0.795947   -0.469230
H      1.470077   -2.091981   -0.175862
H     -3.121908    3.601059   -0.567976
H     -0.375666    1.363833   -0.218234
H      5.064070    0.640342   -0.324860
H     -5.257431   -1.600072   -0.745122
