70

C      4.329999    1.498511    1.069748
C      3.665855   -0.963494    1.513585
C     -0.587158   -2.406066   -1.594468
C     -2.278105    3.349543   -0.679708
C     -3.257776    2.913479    0.180440
C      2.565414    0.425594   -0.200699
C      1.720666   -0.736089   -0.517649
C     -1.717188   -1.685607    0.502406
C     -0.132575    0.429830   -1.331211
C      3.479789    0.322852    0.752868
C     -0.450167   -1.701212   -0.248245
C     -1.276272    1.219037   -0.740825
C     -1.284625    2.516199   -1.146530
C     -3.239260    1.593909    0.586294
C     -2.232868    0.740976    0.115713
C     -3.537999   -0.411340    1.440987
Cl    -0.033153    3.061592   -2.238727
N     -4.000247    0.842091    1.384275
N      0.289054   -0.480913   -0.337331
N     -2.430814   -0.475697    0.646514
S     -4.174097   -1.803261    2.350366
C     -2.514149    0.787067   -0.703708
C     -1.026082    1.128072   -0.845277
C     -3.265674   -0.657972    1.112661
C      2.491712    0.284698    2.304332
C      1.767615   -0.604423   -1.963467
C     -2.451514   -0.619687   -0.170626
C     -0.471209   -0.294310   -0.996473
C      3.072628   -0.294589   -0.255961
C      1.755124   -0.151835    0.129160
C      4.112236   -0.142116    0.667552
N      1.485332    0.135555    1.403189
N      3.773703    0.143358    1.918345
N      3.052184   -0.577805   -1.571374
N      0.945525   -0.342624   -0.923544
O     -4.579101   -0.301573    0.739363
O      5.420837   -0.297448    0.222321
O     -1.131887   -0.946369    0.021125
H      4.999946    1.264928    1.946365
H      3.705429    2.369754    1.361371
H      4.989810    1.801564    0.243073
H      3.886297   -1.782077    0.815565
H      4.497385   -0.830623    2.230656
H      2.742185   -1.211256    2.074659
H     -1.692303   -2.517789   -1.785519
H     -0.226076   -3.475468   -1.544804
H     -0.032070   -1.940655   -2.403557
H     -2.285553    4.376870   -1.000661
H     -4.057272    3.560394    0.561472
H      2.470954    1.380051   -0.724329
H      1.973292   -1.566861    0.158017
H      1.911127   -1.051884   -1.572493
H     -1.602868   -2.216833    1.498095
H     -2.419034   -2.394544   -0.051856
H      0.637253    1.173190   -1.565969
H     -0.540942    0.013357   -2.265516
H      0.253967   -2.382643    0.332660
H     -4.630001   -2.819410    1.504126
H     -3.029679    1.472888   -0.034163
H     -2.912466    0.784782   -1.749562
H     -0.820538    1.750182   -1.714804
H     -0.629109    1.543205    0.115433
H     -3.310521   -1.703837    1.517562
H     -2.905270    0.061202    1.860144
H      2.309240    0.515844    3.336259
H      1.418611   -0.809797   -2.987281
H     -2.922352   -1.353931   -0.854964
H     -0.842987   -0.660295   -1.959697
H     -4.774710    0.632582    0.948875
H      5.982502    0.519176   -0.050999
