70

C      4.434313    0.192537   -1.889164
C      3.817248    1.281109    0.326899
C     -0.551799   -2.533168    0.851931
C     -2.649896    2.987857    1.086885
C     -3.777882    2.204583    0.822016
C      2.592544   -0.621850   -0.539343
C      1.711091   -0.577392    0.661046
C     -1.369029   -1.455291   -1.169852
C      0.104679    0.893931   -0.183966
C      3.566640    0.246757   -0.691691
C     -0.208638   -1.531875   -0.262538
C     -1.307575    1.308532    0.151015
C     -1.393954    2.541606    0.750159
C     -3.658691    0.972990    0.220288
C     -2.410303    0.521673   -0.118090
C     -3.797596   -1.016673   -0.719862
Cl     0.075787    3.435351    1.034579
N     -4.513264    0.002085   -0.161530
N      0.312615   -0.391891    0.341457
N     -2.506135   -0.705366   -0.696900
S     -4.443731   -2.536015   -1.385099
C     -2.360686    0.900573    0.668837
C     -0.828453    0.870053    0.718214
C     -3.720698   -0.374747   -0.997953
C      3.014922    1.936647    0.400546
C      1.294545   -2.076716   -0.105284
C     -2.675703   -0.462632    0.092815
C     -0.591070   -0.638837    0.625849
C      2.956855   -0.673049   -0.161478
C      1.784063   -0.029708    0.237974
C      4.149574    0.003417   -0.274619
N      1.849059    1.288459    0.514013
N      4.144152    1.316675    0.015819
N      2.619365   -1.949169   -0.368365
N      0.776371   -0.915568    0.264341
O     -3.226800    0.452597   -1.995574
O      5.306277   -0.633063   -0.669017
O     -1.474772   -0.986002   -0.383407
H      4.061891   -0.570475   -2.615702
H      4.333894    1.166259   -2.415588
H      5.502072    0.023927   -1.641506
H      4.786514    1.801098    0.087716
H      3.061872    2.074498    0.375994
H      3.967939    0.759701    1.300767
H      0.204668   -3.337762    0.934713
H     -1.505883   -3.041439    0.614138
H     -0.660482   -2.007640    1.825552
H     -2.726354    3.958690    1.559392
H     -4.741261    2.583649    1.097818
H      2.457090   -1.373644   -1.322517
H      1.895026   -1.482410    1.275382
H      2.000123    0.288186    1.289990
H     -1.712442   -2.512344   -1.370860
H     -1.015989   -1.098958   -2.180984
H      0.736831    1.612449    0.363699
H      0.178382    0.982519   -1.281548
H      0.618841   -2.046894   -0.838447
H     -5.469157   -2.998899   -0.554112
H     -2.722316    0.988081    1.727075
H     -2.723680    1.728752    0.061825
H     -0.431090    1.303515    1.634656
H     -0.415691    1.302508   -0.217247
H     -4.059305   -1.352102   -1.342248
H     -4.614077    0.131375   -0.550788
H      3.053200    2.982791    0.622545
H      0.736683   -3.004044   -0.186921
H     -3.037742   -1.123578    0.901589
H     -0.889267   -1.102055    1.583725
H     -3.751219    1.284921   -2.074091
H      5.837505   -1.169091    0.014888
