46

C     -1.013741    0.622961   -1.623313
C     -2.272035    0.692431   -1.262792
C     -1.290327   -0.874893    0.135217
C      1.042004   -0.304670   -0.570732
C     -3.292945   -0.269660    1.956089
C     -0.365538   -0.561328   -1.042586
C     -2.649605   -0.405535   -0.407744
C     -5.368802    0.448779    1.805646
C     -4.809733    0.302591    0.531214
C     -6.666605    0.889984    1.926341
C     -6.864154    1.041407   -0.405141
N     -7.576638    1.324154   -1.468470
N     -4.403256    0.086149    2.666939
N     -5.599766    0.611175   -0.511755
N     -7.381006    1.174593    0.828900
N     -3.547996   -0.135091    0.651711
O     -7.174033    1.017746    3.221183
O      8.694340    2.391595    1.145826
O      8.718195    0.195813   -0.580088
O      7.996090   -0.006595    1.931776
O      3.043470   -1.335653    2.224330
O      4.022954   -2.430950    0.098706
O      5.940929   -1.462162    0.765148
O      5.824912   -0.402378   -1.593609
O      1.549129   -1.484375   -0.046054
O      6.366220    1.263941    0.299355
O      3.821787    0.140096    0.022493
P      7.944357    0.912247    0.743932
P      3.125837   -1.319611    0.516756
P      5.489243   -0.098152   -0.131369
H     -0.544052    1.383955   -2.283036
H     -3.006748    1.491470   -1.558335
H     -0.962238   -0.299728    1.001684
H     -1.264821   -1.941888    0.341128
H      1.665740    0.031856   -1.398410
H      1.041308    0.437079    0.252081
H     -2.384458   -0.598949    2.422503
H     -0.405687   -1.369501   -1.801099
H     -2.983277   -1.261336   -1.065450
H     -7.132194    1.205096   -2.402565
H     -5.188830    0.503806   -1.464162
H     -7.768108    0.262675    3.542057
H      8.011752    3.096228    1.327808
H      8.597046   -0.794291   -0.525740
H      2.495629   -2.110647    2.512520
H      6.525651   -2.060435    0.245522
