44

C     -2.534051   -0.398725   -2.555965
C     -1.835568   -3.140557    0.284030
C      5.711163    0.130269    0.207448
C      5.890447    1.608421    0.476176
C     -5.081439    2.141566    1.024143
C      4.234386   -0.067259   -0.072204
C      4.507981    2.187305    0.690687
C     -4.001057    2.557141    0.278903
C     -5.340049    0.792093    1.075541
C     -2.609783   -0.680783   -1.066551
C     -0.897995   -1.994502    0.176347
C      3.530252    1.051049    0.664450
C     -3.201056    1.637793   -0.397894
C     -4.562239   -0.132676    0.414542
C     -3.465406    0.286125   -0.342931
C     -1.257057   -0.824437   -0.462473
C      0.374834   -2.054712    0.710611
C      0.851491    0.132912   -0.024816
F     -2.140688    2.063557   -1.129619
F     -4.799904   -1.467746    0.453696
N     -0.386243    0.204096   -0.549921
N      1.198492   -1.004692    0.595319
O      0.735098   -3.234025    1.354644
S      1.985579    1.522706   -0.155586
H     -3.295719   -1.004013   -3.126906
H     -2.725611    0.638227   -2.822970
H     -1.502427   -0.648182   -2.919693
H     -2.633042   -2.967698    1.015948
H     -2.211924   -3.475832   -0.715377
H     -1.239655   -4.028659    0.648018
H      6.312760   -0.148806   -0.682071
H      6.038110   -0.491417    1.066929
H      6.553243    1.733009    1.335618
H      6.357131    2.119490   -0.385658
H     -5.713451    2.869152    1.558708
H      3.937233   -1.046324    0.357445
H      4.040044   -0.030351   -1.159044
H      4.270991    2.992940   -0.037385
H      4.511381    2.687853    1.692690
H     -3.746954    3.609715    0.197599
H     -6.183428    0.458817    1.658786
H     -3.133187   -1.683127   -0.993112
H      3.285107    0.737354    1.700889
H      0.172211   -3.637069    2.105416
