27

C      3.342048    0.885738    0.401404
C      1.314809   -1.976199    1.195829
C     -2.245935    2.466881    0.292278
C     -1.222886   -1.815586   -0.288948
C      0.865365   -0.675887    0.522540
C      2.950540   -0.389195   -0.281279
C     -2.639005   -0.153032   -0.346865
C     -1.403924    0.285507    0.085498
C     -3.661145    0.763769   -0.445917
N     -1.234652    1.600778    0.398557
N     -3.439096    2.042414   -0.125579
N     -2.494739   -1.466076   -0.572205
N     -0.525063   -0.743430    0.122020
O      3.038653    1.958623   -0.429343
O     -4.894993    0.342353   -0.874483
O      1.620972   -0.482210   -0.590265
S      3.121637   -1.820426    0.864264
H      2.841221    1.060054    1.360852
H      4.435083    0.871267    0.587916
H      0.903343   -2.861430    0.710917
H      1.150635   -1.926787    2.277040
H     -2.115610    3.503115    0.538087
H     -0.820468   -2.814945   -0.379012
H      0.971923    0.108114    1.305293
H      3.580293   -0.545346   -1.153000
H      2.055511    1.959008   -0.547991
H     -5.494517   -0.177071   -0.248149
