29

C      3.648508   -0.852019   -0.893101
C      1.168309   -1.150776    0.864857
C     -0.265463    1.948249    0.620726
C      0.949601   -0.081398   -0.178131
C      3.111481   -0.192396    0.353037
C     -2.351032    1.386537    0.207307
C     -1.484786    0.357529   -0.177828
C     -3.718157    1.277491    0.050633
C     -3.381735   -0.844126   -0.858565
N     -3.926510   -1.890126   -1.363253
N     -1.565596    2.356505    0.697569
N     -2.055305   -0.733420   -0.704390
N     -4.210862    0.153350   -0.484391
N     -0.222187    0.716453    0.080777
O      4.235338    0.137174   -1.684436
O     -4.592998    2.286260    0.426159
O      2.504858   -1.066595    1.220843
O      2.105880    0.693010   -0.063818
H      4.358636   -1.674465   -0.679863
H      2.826202   -1.284703   -1.498901
H      0.559895   -0.980596    1.778308
H      0.989520   -2.168433    0.469068
H      0.592613    2.521118    0.941580
H      0.951670   -0.552865   -1.163356
H      3.888951    0.413435    0.840009
H     -3.421984   -2.731021   -1.694132
H     -1.427809   -1.533828   -1.007647
H      5.197325    0.249044   -1.499606
H     -4.464363    3.240613    0.059787
