27

C     -3.969609    0.217574   -0.819713
C     -1.392059   -1.229011    1.038422
C      2.960592    2.373454    0.430310
C      1.068610   -1.567925   -0.542848
C     -0.729065   -0.061478    0.298136
C     -2.730773   -0.602233   -0.534300
C      2.811663   -0.246320   -0.422781
C      1.691120    0.434409    0.014551
C      4.016609    0.432874   -0.418590
N      1.782418    1.723880    0.431102
N      4.047668    1.705780    0.003595
N      2.412967   -1.479026   -0.763057
N      0.632974   -0.391508   -0.066277
O     -4.016332    1.377236   -0.083255
O      5.138124   -0.252460   -0.857650
O     -2.737347   -0.933445    0.827560
O     -1.566108    0.077241   -0.788347
H     -4.862526   -0.387019   -0.561371
H     -4.012903    0.378277   -1.917415
H     -1.171586   -2.145224    0.477439
H     -1.111824   -1.249947    2.092817
H      3.067035    3.405850    0.757608
H      0.452639   -2.438835   -0.721076
H     -0.792702    0.841205    0.915802
H     -2.739806   -1.559996   -1.084888
H     -4.118693    2.136974   -0.723437
H      5.868914   -0.560326   -0.230448
