29

C      1.044154    0.769824   -1.160428
C      3.338528   -0.726295    1.118098
C     -3.026294   -1.900290   -1.068699
C     -1.420488    1.625442    1.079842
C      2.329273   -0.832999   -0.028567
C      0.564542    0.445068    0.259794
C     -3.024948    0.352266    0.344901
C     -1.813857   -0.183772   -0.039873
C     -4.215979   -0.250684    0.014071
C      2.495523    0.291728   -1.008613
F      3.171056    1.367505   -0.427174
F      3.041315   -0.086107   -2.193669
N     -1.840294   -1.315587   -0.749121
N     -4.208214   -1.374101   -0.691271
N     -2.752687    1.467684    1.034041
N     -0.834355    0.613187    0.421162
O      4.620312   -0.737452    0.565233
O     -5.403144    0.362361    0.446214
O      1.035625   -0.829467    0.423290
H      0.568080    0.106006   -1.908943
H      0.979948    1.833340   -1.385423
H      3.167477    0.217988    1.633585
H      3.156722   -1.628826    1.757137
H     -3.076693   -2.818082   -1.642689
H     -0.941675    2.450860    1.578745
H      2.563177   -1.819459   -0.521833
H      1.139069    1.112906    0.935390
H      4.953302    0.201190    0.456601
H     -5.609476    1.285767    0.035394
