27

C      3.373048   -1.052043    1.213195
C      1.451693    1.358475   -1.255198
C     -2.422536   -2.065213    0.663226
C     -1.297466    1.984204   -0.728505
C      0.808377    0.955969    0.019631
C      2.401907   -0.665609    0.133516
C     -2.752942    0.413381   -0.356837
C     -1.519769   -0.041096    0.023744
C     -3.844686   -0.411930   -0.215534
N     -1.361236   -1.267029    0.527467
N     -3.650002   -1.632698    0.292143
N     -2.615433    1.657341   -0.818717
N     -0.643524    0.931451   -0.210473
O      4.532076   -1.550891    0.586042
O     -5.124271   -0.030329   -0.575382
O      1.238389   -0.169241    0.530975
S      3.095760    0.571887   -0.999148
H      2.942697   -1.912583    1.763268
H      3.656880   -0.229132    1.865271
H      0.986729    0.825718   -2.100775
H      1.555603    2.443580   -1.406654
H     -2.280627   -3.063662    1.075578
H     -0.905772    2.950680   -1.040330
H      0.953144    1.807941    0.748090
H      2.226447   -1.586315   -0.496003
H      4.734097   -1.012511   -0.235227
H     -5.538584    0.789655   -0.120431
