27

C     -4.069794    0.536143   -0.004315
C     -0.766818   -1.525210   -0.471731
C      3.456263   -1.689649   -0.114145
C      0.571172    1.564025    0.757225
C     -0.766364   -0.572569    0.724804
C     -3.008344   -0.397991    0.565515
C      2.550983    0.840385    0.339950
C      1.686156   -0.231092    0.356093
C      3.887470    0.615410    0.089820
N      2.147457   -1.493526    0.127909
N      4.308183   -0.647837   -0.131686
N      1.832258    1.933555    0.590865
N      0.455424    0.230933    0.616947
O     -3.723156    0.934228   -1.296350
O      4.737010    1.704849    0.078384
O     -1.816861    0.279088    0.594659
S     -2.589179   -1.682550   -0.687622
H     -5.003979   -0.063358   -0.077229
H     -4.173091    1.427083    0.618382
H     -0.389052   -2.518794   -0.177076
H     -0.301480   -1.093255   -1.352777
H      3.859385   -2.675230   -0.299468
H     -0.268918    2.239962    0.978454
H     -0.720684   -1.156958    1.645281
H     -3.331277   -0.841707    1.503247
H     -3.164442    1.771448   -1.230382
H      4.601678    2.512618    0.683755
