29

C      3.598215    0.783604   -0.758510
C      1.358232   -0.995033    1.449384
C     -0.782569   -1.976893   -0.367219
C      0.983025   -0.294064    0.134493
C      3.094405   -0.611329   -0.595281
C     -2.544775   -0.741658   -0.471366
C     -1.479905    0.078695   -0.195267
C     -3.793116   -0.156213   -0.584547
C     -2.865972    1.951630   -0.154569
N     -3.014326    3.243791   -0.001683
N     -2.110901   -2.015128   -0.577609
N     -1.653058    1.389399   -0.043700
N     -3.917096    1.161285   -0.424457
N     -0.388566   -0.693313   -0.131720
O      4.971924    0.769941   -0.453420
O     -4.871453   -0.994964   -0.865225
O      1.761607   -0.785090   -0.854737
S      3.170661   -1.144226    1.162009
H      3.479823    1.079385   -1.807284
H      3.119939    1.476237   -0.053505
H      1.236307   -0.330163    2.312938
H      0.887144   -1.972537    1.533891
H     -0.122117   -2.830904   -0.381382
H      1.010404    0.800990    0.274584
H      3.675817   -1.326925   -1.195187
H     -3.976097    3.637459   -0.096688
H     -0.820956    1.971301    0.163990
H      5.051500    0.312049    0.441967
H     -5.058096   -1.787327   -0.278697
