61

C      4.273126   -0.601745    1.226684
C     -1.218838    0.608231    0.534796
C      1.885148   -0.601846    0.603377
C     -3.111544    0.049943   -1.848032
C      3.190612   -0.319255    0.258528
C     -2.620941   -0.017445    0.576052
C     -2.544130   -0.805037   -0.717899
C     -0.461795   -0.642875    0.090251
C      3.472911    0.224159   -0.986292
C      1.167891    0.171762   -1.460938
N     -2.941634   -0.353925    3.985919
N      2.437284    0.449375   -1.803117
N     -2.686800   -0.974415    1.652515
N     -2.618649   -0.700637    2.836189
N      0.891111   -0.348884   -0.269920
O     -4.430437    0.342098   -1.587536
O      4.775930    0.512207   -1.345005
O      0.271846    0.430069   -2.321609
O     -1.230897   -1.117380   -0.940795
C     -3.608321   -0.637622   -0.975077
C     -1.722407    1.501180    0.960763
C      1.027688    1.803346    1.194872
C     -0.857898    0.258870    1.045495
C     -2.768397   -0.342064    0.245516
C      2.649979    0.618193    0.283045
C      1.495242   -0.113470    0.280203
C      3.846008    0.147298   -0.222476
C      2.691926   -1.839768   -0.744991
N      2.728576   -3.025309   -1.245109
N      2.330805    1.797587    0.854011
N      1.527133   -1.369309   -0.247767
N      3.820977   -1.110791   -0.736591
N      0.508975    0.612582    0.836837
O     -4.942633   -0.464699   -0.601573
O      4.993209    0.921815   -0.199941
O     -2.966630    0.943048    0.688431
O     -1.400290   -0.479921   -0.024100
H      4.534286    0.354323    1.730095
H      5.167859   -0.991930    0.707432
H      3.946337   -1.344962    1.967161
H     -1.191475    1.316586   -0.297032
H     -0.898709    0.981782    1.500273
H      1.658644   -1.029240    1.581233
H     -3.022357   -0.540607   -2.780327
H     -2.552623    0.984739   -1.974319
H     -3.408994    0.727866    0.593389
H     -3.170530   -1.707731   -0.670709
H     -0.513889   -1.341484    0.973949
H     -4.520923    1.244178   -1.174015
H      5.472180    0.699187   -0.640299
H     -3.421494    0.077295   -1.800205
H     -3.497497   -1.681118   -1.291867
H     -1.355590    2.070033    0.060498
H     -1.702405    2.105489    1.878714
H      0.538178    2.651865    1.673163
H     -1.023364   -0.282158    2.013298
H     -3.036401   -1.105494    1.009659
H      3.611647   -3.415975   -1.636142
H      0.650525   -1.912041   -0.244666
H     -5.055324    0.334986   -0.017543
H      4.937781    1.936150   -0.274640
