61

C     -4.013374    0.881520   -1.119588
C      1.324130    0.484466    1.133401
C     -1.729173    0.165132   -0.368584
C      2.991393   -0.261496   -2.100528
C     -3.075887    0.330686   -0.109067
C      2.420597    0.768745    0.109324
C      2.275470   -0.435935   -0.792291
C      0.489499   -0.544059    0.397306
C     -3.605830   -0.017748    1.124086
C     -1.467461   -0.661662    1.754062
N      4.272610   -0.724276    2.487050
N     -2.763925   -0.514183    2.036431
N      3.724101    0.838486    0.722281
N      4.065115    0.024958    1.552176
N     -0.918491   -0.334098    0.567916
O      2.616282    0.913672   -2.746536
O     -4.977930    0.151648    1.386526
O     -0.725906   -1.140305    2.670801
O      0.889628   -0.491062   -0.938998
C      3.998500   -0.604723   -0.564582
C      1.039503    0.915061   -1.079562
C     -0.316877   -0.423146    2.106543
C      0.890947    0.757473    0.365068
C      3.016841    0.472816   -0.104267
C     -2.290448   -0.737754    1.275393
C     -1.501595   -0.064972    0.363331
C     -3.599421   -1.065139    0.993960
C     -3.312727   -0.051919   -1.086344
N     -3.762223    0.308365   -2.258379
N     -1.513826   -0.937420    2.338182
N     -2.020827    0.270290   -0.806515
N     -4.093773   -0.709545   -0.202582
N     -0.271531    0.137675    0.866416
O      4.986153    0.010548   -1.332360
O     -4.367083   -1.735757    1.917750
O      2.447098    1.088211   -1.185896
O      2.005637   -0.063845    0.672424
H     -4.757688    0.094911   -1.406157
H     -3.503489    1.170435   -2.046982
H     -4.604870    1.711084   -0.687760
H      1.801379   -0.024731    1.988487
H      0.762593    1.381794    1.398463
H     -1.317586    0.433955   -1.321445
H      2.910438   -1.141234   -2.755803
H      4.074532   -0.149896   -1.861266
H      2.130923    1.702488   -0.404148
H      2.593973   -1.322219   -0.240657
H      0.718754   -1.582548    0.745312
H      2.991469    1.707725   -2.332569
H     -5.591275   -0.604932    1.158758
H      4.460514   -1.057047    0.338777
H      3.477588   -1.375605   -1.174259
H      0.655297    1.877737   -1.497387
H      0.824988    0.041575   -1.694578
H      0.495131   -0.464059    2.836053
H      1.136152    1.739033    0.859302
H      3.592431    1.166611    0.552685
H     -4.732686    0.105342   -2.557344
H     -1.450250    0.767992   -1.491969
H      5.224642    0.905867   -0.993589
H     -5.018157   -1.273667    2.543732
