31

C      0.690391    0.499845    1.396454
C      2.193534    0.716435    1.224051
C      1.382808   -0.638421   -0.538076
C      3.576919    0.377183   -0.831571
C     -3.479108    1.324058    1.599367
C     -1.244801   -1.524280   -1.038724
C      0.386525   -0.734736    0.608616
C     -3.060940   -0.453156   -0.443900
C     -2.031832   -0.105342    0.408181
C     -4.302994    0.104147   -0.255356
C      2.650298   -0.269477    0.192395
F      3.188854   -1.412269    0.722233
N     -2.289203    0.761972    1.383638
N     -4.487382    0.975833    0.755256
N     -2.546206   -1.330604   -1.327226
N     -0.928313   -0.762398    0.039007
O      4.683558    0.870997   -0.127629
O     -5.333347   -0.257417   -1.125069
H      0.194774    1.382984    0.983005
H      0.441305    0.329493    2.471390
H      2.421959    1.739214    0.864443
H      2.703676    0.586826    2.206463
H      1.460333   -1.592587   -1.074258
H      1.124490    0.208415   -1.203686
H      3.050003    1.197938   -1.319127
H      3.959187   -0.386027   -1.532012
H     -3.663017    2.032034    2.406277
H     -0.573726   -2.180377   -1.582735
H      0.594184   -1.655976    1.176648
H      5.163952    0.101728    0.275686
H     -5.925883   -1.027508   -0.864566
