29

C      2.469152   -0.741497   -1.023087
C      1.064073    0.300422    0.473986
C      3.470373    1.016847    0.432693
C     -2.560119    1.870011    1.441007
C     -1.652900   -1.665260   -1.101214
C      2.509840   -0.118016    0.309973
C      1.267755   -1.275560   -1.190875
C      0.429110   -1.032556    0.040908
C     -3.017679   -0.135935   -0.299173
C     -1.757211    0.058827    0.242115
C     -4.045697    0.688019    0.043314
F      0.874680   -1.936745   -2.311327
N     -1.566001    1.058838    1.098338
N     -3.793989    1.684423    0.915182
N     -2.923436   -1.195861   -1.115797
N     -0.954807   -0.886012   -0.265883
O      4.748511    0.512017    0.145663
O     -5.326546    0.525240   -0.478699
H      3.247326   -0.789435   -1.778018
H      0.794948    0.565026    1.492988
H      0.772975    1.061672   -0.290084
H      3.513310    1.382876    1.469361
H      3.278233    1.852804   -0.234963
H     -2.409075    2.688429    2.140081
H     -1.251814   -2.502815   -1.646512
H      2.701966   -0.913642    1.048152
H      0.666764   -1.753610    0.828185
H      4.953578   -0.183306    0.824922
H     -5.503317   -0.135200   -1.211236
