56

C      3.947828    0.106070    2.955471
C     -3.056405    2.979228   -1.046799
C     -1.888734    2.033630   -0.690402
C      2.778987   -0.021189    3.672765
C      3.928600   -0.162253    1.590256
C      3.573010    1.764421   -1.946872
C      4.459391    1.144976   -2.933855
C     -3.780235    3.196239    0.286168
C     -0.439472   -0.107165    0.503066
C     -3.743678    0.841871    0.304900
C      3.799631   -0.747492   -1.314991
C     -3.209096   -2.143049   -0.973335
C      4.416994    0.628553   -1.476451
C     -2.541375    0.659734   -0.609485
C     -1.639041   -0.396429   -0.135320
C     -1.967080   -1.751905   -0.281706
C      0.415733   -1.075658    0.985005
C      1.630209   -0.410865    3.009725
C      2.821504   -0.547828    0.897527
C      1.647398   -0.670165    1.646611
C     -1.106922   -2.710593    0.202833
C     -2.498531   -4.476817   -0.516345
N     -3.619530    2.047069    1.134466
N      0.060884   -2.360612    0.823534
N     -1.416490   -4.089959    0.062507
O      0.440523   -0.537239    3.754443
O     -2.796562   -5.844872   -0.650913
O      2.740460   -0.822797   -0.421663
O     -3.364617   -3.546091   -1.003759
Cl     0.685838    0.000000    0.000000
H      4.843793    0.409814    3.474112
H     -3.695862    2.416723   -1.748342
H     -2.713255    3.908036   -1.499313
H     -1.419084    2.353498    0.249282
H     -1.208313    2.105395   -1.567626
H      2.706767    0.166539    4.725716
H      4.865743   -0.055114    1.092259
H      3.854579    2.779851   -1.549138
H      2.475097    1.571525   -1.942915
H      5.324965    1.717843   -3.274697
H      4.058196    0.446002   -3.697347
H     -4.852777    3.350525    0.078328
H     -3.353075    4.131628    0.698645
H     -0.114764    0.912646    0.651851
H     -3.905512   -0.006397    0.995502
H     -4.677373    0.972486   -0.277068
H      3.570992   -1.169460   -2.316513
H      4.604842   -1.417680   -0.905300
H     -4.138315   -1.757596   -0.528330
H     -3.141557   -1.850065   -2.068046
H      5.414752    0.796495   -0.996004
H     -2.951541    0.460917   -1.625088
H     -2.792368    2.053503    1.732804
H     -0.384435   -0.822706    3.246118
H     -1.964881   -6.453222   -0.718879
H     -0.685838    0.000000    0.000000
