27

C     -3.849916    0.195905   -0.838401
C     -0.892804   -1.691683   -0.353151
C      3.640813   -1.298097    0.393085
C      0.277547    1.544002   -0.449466
C     -0.690247   -0.532656    0.625478
C     -2.751210   -0.637531   -0.225164
C      2.399885    0.965160   -0.470601
C      1.654828   -0.043752    0.088499
C      3.762517    0.824868   -0.589473
N      2.299853   -1.150449    0.505703
N      4.358526   -0.301699   -0.156655
N      1.529606    1.943041   -0.798978
N      0.357561    0.331651    0.091593
O     -3.284918    1.293109   -1.482305
O      4.546391    1.816060   -1.145707
O     -1.855982   -1.100154   -1.204533
O     -1.924716    0.090073    0.598321
H     -4.413013   -0.391698   -1.563122
H     -4.531655    0.484153   -0.012253
H     -1.390561   -2.509883    0.179020
H      0.017552   -1.958725   -0.881013
H      4.119104   -2.200168    0.739529
H     -0.637405    2.099493   -0.579608
H     -0.408267   -0.914698    1.623604
H     -3.172830   -1.546448    0.253218
H     -3.332503    2.072393   -0.874146
H      4.171843    2.617733   -1.635181
