29

C      1.601110    1.034987    0.665791
C      3.533503   -0.867723   -0.971385
C     -0.950620    2.210180   -1.087383
C      2.428501    0.061634    0.970755
C      2.305500   -0.984118   -0.086240
C      0.922902    0.648699   -0.590698
C     -2.665151    1.002160   -0.402120
C     -1.481607    0.283088   -0.203915
C     -3.837470    0.411256   -0.035184
C     -2.724485   -1.523795    0.695320
F      3.261441   -0.037117    2.026595
N     -2.757157   -2.722567    1.216577
N     -2.289323    2.167759   -0.941685
N     -1.562942   -0.947644    0.335785
N     -3.844339   -0.806400    0.491778
N     -0.456700    1.044132   -0.630371
O      4.669310   -1.178888   -0.227606
O     -5.013323    1.118064   -0.228817
O      1.141384   -0.685144   -0.774189
H      1.423711    1.955114    1.205096
H      3.618084    0.184085   -1.360266
H      3.490703   -1.597857   -1.810132
H     -0.341767    3.016334   -1.493749
H      2.314701   -1.962546    0.395500
H      1.442901    1.217098   -1.413326
H     -3.696074   -3.099962    1.469029
H     -0.664878   -1.478769    0.479910
H      5.326722   -0.426982   -0.215209
H     -5.194639    1.964923    0.252297
