56

C      3.774276    0.637408   -3.123576
C     -3.595524   -2.769135   -0.615719
C     -2.512457   -1.722569   -0.771236
C      2.617583    1.100675   -3.710978
C      3.739047    0.389875   -1.759811
C      4.991190   -1.996318    2.025539
C      5.376008   -1.772832    0.619021
C     -4.336111   -2.686713    0.676769
C     -0.691041    0.286505   -0.615359
C     -2.519862   -1.409819    1.601651
C      3.457311   -0.105069    1.243436
C     -3.238609    1.963798    1.567357
C      3.976362   -1.494889    1.008305
C     -2.815247   -0.659251    0.310529
C     -1.847524    0.458825    0.150517
C     -2.027967    1.688270    0.754178
C      0.261027    1.266187   -0.793172
C      1.488068    1.299883   -2.948454
C      2.625539    0.579527   -0.975247
C      1.459309    1.053454   -1.602201
C     -1.062299    2.685166    0.575255
C     -2.296643    4.233450    1.911375
N     -3.460721   -2.481569    1.810635
N      0.031469    2.441142   -0.180816
N     -1.269889    3.946049    1.193337
O      0.333473    1.769780   -3.574071
O     -2.420389    5.511672    2.488078
O      2.521490    0.360743    0.354621
O     -3.250181    3.261873    2.089213
Cl     0.691672    0.000000    0.000000
H      4.672930    0.472884   -3.701527
H     -3.147517   -3.759500   -0.791400
H     -4.315848   -2.612708   -1.461502
H     -1.570647   -2.206373   -0.451972
H     -2.492607   -1.223722   -1.736724
H      2.613076    1.303064   -4.773791
H      4.639539    0.046492   -1.324593
H      4.912828   -3.044081    2.368218
H      5.396032   -1.287330    2.758106
H      6.051183   -0.908284    0.367160
H      5.576155   -2.646883   -0.030976
H     -5.152903   -1.932402    0.632095
H     -4.838665   -3.668561    0.839394
H     -0.488832   -0.651104   -1.118658
H     -2.362432   -0.802175    2.477100
H     -1.530801   -1.929751    1.415267
H      3.090454   -0.031562    2.318459
H      4.360936    0.588430    1.231928
H     -3.344194    1.285741    2.431777
H     -4.158542    1.833898    0.927933
H      3.209880   -2.225179    0.716336
H     -3.833434   -0.281600    0.242238
H     -4.031591   -2.371137    2.668716
H     -0.524103    1.930591   -3.044929
H     -2.038587    6.285131    1.940859
H     -0.691672    0.000000    0.000000
