35

C      1.603776   -1.175789    1.349182
C     -3.197721    1.125568   -1.408470
C      2.809778    1.927287   -1.785885
C      0.928598   -0.377190    0.439042
C     -2.583164    0.361031   -0.248962
C      1.852338    0.418031   -0.213315
C     -0.496266   -0.316727    0.320680
C      3.069300    0.090226    0.320740
C     -2.570236   -1.088884   -0.510425
C     -1.143561   -1.521454   -0.310122
C      4.169253    0.705159   -0.240212
N      2.902395   -0.877233    1.268408
N      1.767419    1.300576   -1.214438
N      4.042174    1.593867   -1.263112
N     -1.173887    0.817861   -0.123292
O     -3.204154    2.498226   -1.070841
O     -3.337989   -1.759773    0.483487
O     -1.105280   -2.689171    0.380707
O      5.403552    0.361076    0.312122
Cl     0.690038    0.000000    0.000000
H      1.215589   -1.944015    2.028348
H     -2.604448    0.998261   -2.316069
H     -4.247149    0.775933   -1.593341
H      2.761579    2.656502   -2.574872
H     -3.124606    0.589372    0.703915
H     -0.894991   -0.455484    1.453475
H     -2.941662   -1.378240   -1.514000
H     -0.694541   -1.660681   -1.371867
H      3.637424   -1.321826    1.837196
H     -0.819618    1.258463   -0.980906
H     -3.029815    2.613843   -0.111991
H     -4.042528   -1.144057    0.852233
H     -0.974246   -3.504798   -0.196077
H      6.022688    1.124037    0.638620
H     -0.690038    0.000000    0.000000
