35

C      2.006885   -1.553642   -0.837667
C     -3.626790    0.789332   -0.531685
C      2.306093    2.805064    0.205479
C      1.082331   -0.567470   -0.601425
C     -2.523644   -0.190040   -0.470209
C      1.770171    0.577254   -0.367287
C     -0.373859   -0.707400   -0.611025
C      3.102980    0.297211   -0.459366
C     -2.208005   -0.658241    0.930639
C     -0.800566   -1.156741    0.818307
C      4.027427    1.272481   -0.211343
N      3.237786   -1.021959   -0.750552
N      1.384346    1.836119   -0.031606
N      3.627520    2.512447    0.113679
N     -1.212762    0.385613   -0.862243
O     -3.741501    1.306008   -1.841260
O     -3.095906   -1.586858    1.394252
O     -0.558032   -2.454487    1.024774
O      5.389113    0.946074   -0.302327
Cl     0.684455    0.000000    0.000000
H      1.738561   -2.561403   -1.070013
H     -3.656228    1.545068    0.249900
H     -4.586839    0.202438   -0.412459
H      2.033053    3.818467    0.466333
H     -2.686397   -1.079284   -1.080990
H     -0.671968   -1.576158   -1.276941
H     -2.197036    0.199168    1.645915
H     -0.117584   -0.516047    1.493546
H      4.161648   -1.505648   -0.878967
H     -1.273604    0.630927   -1.901023
H     -3.715470    2.306401   -1.839965
H     -3.692743   -1.199037    2.100205
H     -0.790923   -3.061758    0.304537
H      5.661941   -0.033901   -0.288098
H     -0.684455    0.000000    0.000000
