27

C     -2.784239   -0.211153    1.893663
C     -1.328429   -1.117228   -1.558498
C      2.015277   -0.878597    1.769331
C      1.140066    0.967854   -2.201721
C     -1.041910    0.307111   -1.126046
C     -2.681637    0.137410    0.418423
C      2.566773    0.320227   -0.653928
C      1.279164    0.039664   -0.247170
C      3.570542   -0.030830    0.216979
N      1.025518   -0.544716    0.936173
N      3.276241   -0.612529    1.389111
N      2.453687    0.889311   -1.856135
N      0.415517    0.443667   -1.209063
O     -2.409206    0.858538    2.698831
O      4.892124    0.237542   -0.159662
O     -1.370752    0.464250    0.173301
S     -2.817277   -1.437325   -0.524545
H     -2.083738   -1.043902    2.112208
H     -3.799303   -0.580698    2.150855
H     -1.669123   -1.097887   -2.595614
H     -0.523035   -1.812710   -1.333199
H      1.788763   -1.353141    2.727419
H      0.736157    1.382957   -3.123120
H     -1.464007    1.051769   -1.823210
H     -3.422620    0.865705    0.101964
H     -2.875685    1.683650    2.491085
H      5.111132    1.071062   -0.667433
