31

C     -2.793004    1.263732    0.559769
C     -1.573595    1.761315    0.701778
C     -1.290252   -0.477214    0.247017
C     -3.711431   -0.916789   -0.226606
C      1.256307    2.123386    1.068278
C     -2.749966   -0.230974    0.700546
C     -0.638768    0.624391    0.947023
C      2.809548    1.134584   -0.076319
C      1.662429    0.357094   -0.076157
C      3.947213    0.737040   -0.731679
C      2.773179   -1.198682   -1.370712
N      2.810502   -2.326002   -2.016997
N      2.508737    2.206317    0.638750
N      1.664495   -0.794849   -0.722837
N      3.889865   -0.450626   -1.375777
N      0.707651    0.956272    0.622575
O     -3.613715   -2.272955   -0.039409
O      5.103289    1.467131   -0.761801
H     -3.672512    1.874706    0.370271
H     -1.259805    2.792225    0.657229
H     -1.350175   -0.411827   -0.843836
H     -1.092599   -1.494416    0.646683
H     -4.729231   -0.582550    0.058429
H     -3.563217   -0.606731   -1.274749
H      0.792280    2.897203    1.678405
H     -2.864994   -0.573587    1.725739
H     -0.726001    0.422944    2.058123
H      3.663135   -2.642064   -2.518327
H      0.829408   -1.379101   -0.733230
H     -4.520024   -2.685509    0.062546
H      5.731250    1.568173    0.025279
