69

C     -3.982232   -4.252061    0.238446
C      7.796369   -0.753400   -1.719183
C     -1.434986    4.769464   -0.228005
C     -6.121571   -3.046014   -2.811657
C     -3.194882    6.547934    2.905729
C     -3.629284   -3.845082   -1.181802
C      6.382651   -0.969233   -2.189654
C      4.064684   -1.110148   -1.516150
C      5.836106   -1.512389    0.086461
C      3.252522   -1.935365   -0.543123
C      4.812005   -1.235747    1.194297
C      0.071791   -0.546160    0.967743
C      1.498606    0.953101    2.096114
C     -2.161916    4.653782    2.111672
C     -2.054883    3.793875    0.811526
C      1.234470   -0.307878    1.660716
C     -0.823803    0.466117    0.708846
C     -4.109090   -2.468289   -1.467581
C     -3.514026   -1.296104   -1.033735
C     -4.266257   -0.233793   -1.487456
C     -2.052933    0.199474   -0.024508
C     -3.902820    1.064804   -1.202374
C     -0.533149    1.749086    1.165169
N      0.652369    1.929610    1.856881
N     -2.390778   -1.065002   -0.290971
N     -2.794087    1.228190   -0.470273
N     -5.280098   -0.779685   -2.173282
N     -5.200235   -2.096385   -2.171226
N      5.421279   -0.903584   -1.143256
N      3.564090   -1.743316    0.809525
O     -4.570767    2.052673   -1.602294
O      2.929164   -1.433933    3.312151
O      1.551002   -2.937803    2.023709
O     -3.019783    5.684962    1.807901
O     -1.277114    2.786656    1.000211
S      2.320837   -1.638576    1.932288
H     -5.031928   -4.520227    0.343451
H     -3.679464   -3.424335    0.939545
H     -3.341302   -5.117469    0.498609
H      8.272129   -1.667686   -1.370019
H      7.839022    0.079807   -0.978947
H      8.374856   -0.402714   -2.607758
H     -2.195951    5.513870   -0.494245
H     -0.536760    5.215717    0.214781
H     -1.161337    4.174420   -1.096536
H     -5.974512   -3.103810   -3.893998
H     -6.131385   -4.021834   -2.291798
H     -7.147935   -2.600567   -2.668897
H     -3.906287    7.356124    2.598504
H     -2.188323    6.992621    3.167337
H     -3.604605    5.990797    3.764317
H     -4.037884   -4.585245   -1.865638
H     -2.524207   -3.860526   -1.258677
H      6.328989   -1.949983   -2.719592
H      6.142923   -0.190625   -2.958244
H      3.544671   -0.124068   -1.645555
H      4.001859   -1.613078   -2.509728
H      6.766153   -0.998093    0.429742
H      5.979493   -2.602685    0.038248
H      2.173022   -1.663660   -0.747189
H      3.322931   -2.997830   -0.870151
H      5.169603   -1.829162    2.090024
H      4.815306   -0.167060    1.459605
H     -0.125285   -1.577111    0.619235
H      2.437695    1.148239    2.655218
H     -2.526949    4.034803    2.931370
H     -1.114156    5.000892    2.288470
H     -3.117400    3.659991    0.429852
H     -1.896234   -1.919296    0.009460
