29

C      2.782210   -1.205982    0.690854
C      3.758378    0.015565   -1.239059
C     -1.301846   -1.892625    1.012679
C      3.055616    0.104933    0.090776
C      1.603602   -1.433928    1.162028
C     -2.844886   -0.605376    0.176352
C     -1.661241    0.094571    0.285693
C     -4.007528   -0.025385   -0.330207
C      0.613619   -0.367528    1.065485
C     -2.789004    1.971167   -0.619258
F      1.283152   -2.647669    1.750524
N     -2.755531    3.205332   -0.998447
N     -2.591542   -1.820898    0.630377
N     -1.696059    1.380002   -0.128625
N     -3.943078    1.248686   -0.713379
N     -0.722877   -0.713021    0.802000
O      3.950341    1.341988   -1.685356
O     -5.170031   -0.799283   -0.410466
S      1.365114    0.678311   -0.215231
H      3.612196   -1.956822    0.714532
H      3.125836   -0.504908   -1.978013
H      4.743613   -0.447318   -1.169991
H     -0.916643   -2.835204    1.418469
H      3.606570    0.792956    0.765583
H      0.694176    0.235239    2.019465
H     -1.859833    3.728987   -0.913719
H     -0.837499    1.930036   -0.061500
H      4.158213    1.945850   -0.905694
H     -5.255037   -1.417675   -1.215874
