29

C      2.762414    1.500205    0.116872
C      4.055348   -0.626055    0.198284
C     -1.140035    1.918317   -1.125496
C      2.985328    0.218911    0.801410
C      1.545104    1.909487   -0.011556
C     -2.675384    0.319246   -1.040795
C     -1.644513    0.033300   -0.155347
C     -3.762553   -0.544490   -1.165910
C      0.466026    1.065159    0.536611
C     -2.785616   -1.935182    0.450609
F      1.263686    3.128681   -0.642502
N     -2.845763   -3.024612    1.166775
N     -2.336774    1.472205   -1.614156
N     -1.758161   -1.094247    0.551709
N     -3.774465   -1.642557   -0.411661
N     -0.718092    1.034821   -0.232031
O      4.141599   -1.802752    0.962348
O     -4.749787   -0.193303   -2.067721
S      1.329111   -0.543797    0.559634
H      3.642381    2.060606   -0.259580
H      5.011139   -0.114221    0.299383
H      3.794204   -0.883645   -0.845737
H     -0.743836    2.843426   -1.500640
H      3.116041    0.393549    1.868073
H      0.296879    1.367829    1.603497
H     -3.650775   -3.662433    1.072951
H     -0.992370   -1.320618    1.221209
H      4.484049   -2.526336    0.402151
H     -5.315186    0.648507   -1.975125
