69

C     -2.775830   -4.552012   -0.334398
C      8.188469   -0.341264   -0.863732
C     -1.757728    4.512608   -1.986003
C     -6.669378   -3.806385   -0.116696
C     -4.295143    5.306982   -0.782575
C     -3.696339   -4.015216    0.742692
C      7.383204   -1.359295   -0.091155
C      5.289411   -0.643018   -0.870060
C      5.506072   -1.816241    1.216490
C      3.849062   -0.333434   -0.525502
C      4.188129   -2.344906    0.710597
C      0.004029   -0.010870    0.899337
C      1.444648    1.860592    0.838192
C     -2.353565    5.169534    0.393731
C     -1.621517    4.270464   -0.533653
C      1.278028    0.525286    1.106364
C     -1.038597    0.759090    0.447423
C     -4.451893   -2.807392    0.280895
C     -3.918386   -1.523404    0.157512
C     -4.923487   -0.695733   -0.290579
C     -2.385089    0.239260    0.201270
C     -4.628645    0.646578   -0.493987
C     -0.818609    2.108709    0.189982
N      0.416215    2.605342    0.396227
N     -2.675064   -1.044624    0.394150
N     -3.374940    1.039772   -0.236548
N     -6.013555   -1.455727   -0.429379
N     -5.726546   -2.700240   -0.090079
N      6.095809   -0.835261    0.318766
N      3.267867   -1.302284    0.349673
O     -5.529900    1.402658   -0.898731
O      3.622997    0.354608    2.311903
O      2.080596   -1.451402    2.752941
O     -3.698519    5.032358    0.423266
O     -1.869992    2.888763   -0.266816
S      2.551693   -0.526736    1.686661
H     -2.987340   -4.067895   -1.323919
H     -1.706209   -4.403531   -0.037580
H     -2.902148   -5.638806   -0.478953
H      8.063675   -0.468341   -1.967767
H      7.978642    0.681055   -0.522959
H      9.261756   -0.543525   -0.652910
H     -0.716577    4.457124   -2.451534
H     -2.170810    5.497686   -2.244011
H     -2.274201    3.649812   -2.464552
H     -6.844178   -4.168773    0.929931
H     -6.289998   -4.641432   -0.757973
H     -7.649011   -3.513710   -0.521998
H     -4.092660    6.342547   -1.155441
H     -4.221429    4.530002   -1.548716
H     -5.412218    5.350378   -0.544674
H     -4.456588   -4.804233    0.934344
H     -3.157759   -3.818671    1.686317
H      7.225022   -2.281907   -0.664395
H      7.941329   -1.589147    0.839829
H      5.278705   -1.569538   -1.470723
H      5.694518    0.240553   -1.403673
H      6.165284   -2.700250    1.372007
H      5.306345   -1.379274    2.214243
H      3.288166   -0.358144   -1.503836
H      3.772625    0.711263   -0.179700
H      3.743726   -2.975642    1.478128
H      4.358906   -2.960233   -0.221492
H     -0.144236   -1.061351    1.105339
H      2.427315    2.301794    0.992357
H     -1.885925    5.056536    1.422602
H     -2.053354    6.239101    0.127974
H     -0.508559    4.473413   -0.297679
H     -1.976321   -1.744016    0.733012
