31

C     -2.588120    1.426840   -0.255766
C     -1.351816   -0.494630    0.082471
C     -3.696819   -0.750442   -0.749002
C      1.397446    1.957548    0.713092
C     -2.808706    0.019014    0.162899
C     -1.352480    1.802646    0.061965
C     -0.651869    0.641251    0.730026
C      2.912956    0.566733    0.024896
C      1.683689   -0.063151    0.081555
C      4.062484   -0.111506   -0.387878
C      2.732574   -2.003517   -0.669716
F     -0.887391    3.045274   -0.210996
N      2.661649   -3.257546   -1.011798
N      2.684296    1.812201    0.424154
N      1.630795   -1.341200   -0.270673
N      3.919856   -1.394621   -0.724591
N      0.739715    0.781911    0.503835
O     -4.934591   -0.112347   -0.783605
O      5.303931    0.536495   -0.441982
H     -3.330745    2.025324   -0.739005
H     -1.123211   -0.614947   -0.996250
H     -1.399054   -1.430151    0.656952
H     -3.875778   -1.744991   -0.281826
H     -3.258009   -0.872049   -1.753353
H      0.979165    2.907601    1.068227
H     -3.168845    0.004759    1.198886
H     -0.942523    0.670153    1.802594
H      3.490435   -3.779769   -1.318782
H      0.748289   -1.856519   -0.244954
H     -5.111060    0.357722    0.079262
H      5.533738    1.271914    0.232479
