27

C     -0.958325   -1.142506   -0.447835
C     -3.923162    0.673853   -0.597159
C      3.178645   -2.070477    0.130335
C      0.977114    1.832821    0.106582
C     -2.267283   -1.147653   -0.658645
C     -2.833604   -0.022045    0.165244
C     -0.688734   -0.032159    0.496321
C      2.802871    0.625278   -0.045437
C      1.737132   -0.191292    0.172038
C      4.070977    0.085202   -0.176298
F     -2.920412   -2.011837   -1.462927
N      1.948784   -1.529578    0.255803
N      4.242276   -1.254443   -0.086798
N      2.319650    1.883685   -0.084640
N      0.619992    0.554727    0.264453
O     -4.352553    1.830446    0.015790
O      5.141652    0.935011   -0.397276
O     -1.720952    0.839661    0.287132
H     -0.232351   -1.839024   -0.898807
H     -3.501841    0.941322   -1.595222
H     -4.801742    0.016132   -0.729171
H      3.295913   -3.138932    0.204402
H      0.307682    2.672466    0.128755
H     -3.116262   -0.333703    1.175708
H     -0.778663   -0.431497    1.528174
H     -4.514889    1.742672    0.974089
H      5.968084    0.511872   -0.846224
