34

C      0.225363   -1.638987    2.954263
C     -2.984272    1.876339   -1.596313
C      1.379794    2.649536   -1.089340
C      2.291908    2.180295   -2.005268
C      0.894209    1.825134   -0.108618
C      2.728394    0.881454   -1.950469
C      1.760415   -1.580524    0.411154
C      0.040787   -0.483376    1.974706
C      1.301924    0.511594   -0.011894
C      1.002683   -0.528816    0.854750
C      2.223298    0.073518   -0.952736
C     -1.398271   -0.584023    1.516119
C     -1.733258   -1.838444    0.863910
C     -2.399220   -0.164550   -0.443928
N     -2.929266    0.447032   -1.482585
N      2.484430   -1.223229   -0.661531
N     -2.303584   -1.569201   -0.252999
O     -1.488085   -3.108067    1.348798
O     -1.829956    0.419606    0.668167
H      1.021356   -1.437432    3.696596
H     -0.720247   -1.803428    3.513455
H      0.520096   -2.524440    2.368469
H     -3.423407    2.122400   -2.575846
H     -3.506455    2.386548   -0.764650
H     -1.921837    2.248559   -1.564540
H      1.058958    3.670314   -1.160240
H      2.666621    2.861071   -2.780886
H      0.179270    2.168371    0.642923
H      3.439022    0.538251   -2.673503
H      1.789778   -2.561237    0.841955
H      0.128793    0.457588    2.552237
H     -2.008859   -0.520042    2.447519
H      3.136953   -1.807521   -1.196453
H     -1.627334   -3.944291    0.797522
