27

C     -0.876127   -1.481429    0.229257
C     -3.954839    0.251342    0.411324
C      3.036463   -0.890412    1.681604
C      0.932348    1.182457   -1.614732
C     -2.161951   -1.472092    0.550283
C     -2.787264   -0.399876   -0.288154
C     -0.696358   -0.440275   -0.786680
C      2.661158    0.822676   -0.313092
C      1.657083   -0.030007    0.042664
C      3.896567    0.845454    0.323972
F     -2.866736   -2.223101    1.430584
N      1.845271   -0.885340    1.039030
N      4.041140   -0.047306    1.336201
N      2.199258    1.555130   -1.327215
N      0.601890    0.189238   -0.751434
O     -3.551920    0.672543    1.672395
O      4.903058    1.711004   -0.043962
O     -1.714640    0.477296   -0.439514
H     -0.138608   -2.141064    0.654493
H     -4.836090   -0.385123    0.428474
H     -4.184848    1.183180   -0.179094
H      3.239587   -1.569651    2.501541
H      0.302298    1.607186   -2.396560
H     -3.060821   -0.758007   -1.295607
H     -0.944633   -0.822846   -1.780990
H     -3.257887    1.603221    1.660562
H      5.716603    1.445798   -0.585963
