34

C      1.066486   -1.528227    0.900654
C      5.169527    0.544387   -1.401702
C     -4.004308    1.400832    0.178025
C     -4.753724    0.689950   -0.751144
C     -2.728645    0.984923    0.499202
C     -4.274724   -0.428353   -1.375813
C     -1.064489   -1.870788   -0.855587
C      0.072350   -0.388677    0.842573
C     -2.270122   -0.141119   -0.141215
C     -1.047789   -0.773110   -0.003054
C     -2.988748   -0.858620   -1.059732
C      0.864967    0.799704    0.306092
C      1.980208    1.138616    1.200151
C      2.837248    0.595649   -0.775202
N      3.756931    0.375243   -1.687808
N     -2.245522   -1.911969   -1.490398
N      3.075215    1.010751    0.554638
O      1.892903    1.540622    2.547775
O      1.478327    0.475467   -0.907790
H      1.428605   -1.802520   -0.108322
H      1.890684   -1.319419    1.613991
H      0.559375   -2.463356    1.277553
H      5.692284   -0.339994   -1.822817
H      5.560458    1.429728   -1.945084
H      5.381297    0.584229   -0.313161
H     -4.413893    2.271217    0.647469
H     -5.761625    1.036049   -0.991579
H     -2.089426    1.493927    1.216127
H     -4.835196   -1.003421   -2.107895
H     -0.272732   -2.602283   -1.014855
H     -0.207120   -0.161391    1.891250
H      0.198337    1.664104    0.102710
H     -2.514202   -2.626303   -2.181378
H      2.567062    2.184152    2.940418
