28

C     -3.053219   -0.520629   -1.273467
C      3.650736    0.981640    0.261614
C      2.297998    1.235282    0.250030
C      3.217215   -1.314993   -0.109273
C     -2.470824    1.637693   -0.342568
C      4.116707   -0.305687    0.080318
C      1.344722    0.232772    0.059474
C      1.867583   -1.033085   -0.116373
C     -0.069417    0.522652    0.051173
C     -3.104239   -0.202978    1.129078
C     -2.335303    0.153283   -0.089998
N     -1.014413   -0.273037   -0.107135
O      5.473806   -0.610431    0.084180
O      0.995512   -2.094325   -0.312958
O     -2.624680   -0.834902    2.077456
O     -4.429214    0.201979    1.191488
S     -0.800794    2.139782    0.262716
H     -2.353400   -0.433577   -2.132529
H     -4.023301   -0.026325   -1.474755
H     -3.155863   -1.611480   -1.069302
H      4.384566    1.755104    0.408573
H      1.960011    2.248153    0.393755
H      3.578552   -2.332714   -0.252876
H     -3.261225    2.111886    0.244137
H     -2.519247    1.847907   -1.431329
H      5.890677   -0.848460    0.972333
H      1.307266   -3.046978   -0.448372
H     -4.870212    0.421468    2.089157
