33

C     -1.118699   -0.805448   -1.081206
C     -2.449763   -1.369491   -0.644864
C     -1.744460    0.370726    0.857584
C     -3.868071    0.664298   -0.440601
C      0.646280    1.827112   -0.111653
C     -0.548829   -0.338785    0.260531
C      2.716788    1.102303   -0.016614
C      1.877409    0.036718    0.169493
C      4.084807    0.935642   -0.005413
C      3.744575   -1.342041    0.375030
C     -2.964824   -0.312983    0.299587
F     -3.694170   -0.931026    1.301542
N      4.251517   -2.510997    0.562152
N      1.947169    2.193295   -0.187701
N      2.396707   -1.200414    0.367726
N      4.576195   -0.303880    0.193544
N      0.596305    0.498163    0.108546
O     -3.225454    1.316500   -1.469220
O      4.938143    2.037007   -0.197602
H     -1.289875    0.053834   -1.739833
H     -0.466728   -1.579188   -1.537033
H     -2.246442   -2.310454   -0.060420
H     -3.128902   -1.564497   -1.495456
H     -1.776366    1.437445    0.629186
H     -1.715615    0.271606    1.978278
H     -4.308830    1.370113    0.304590
H     -4.715739    0.103173   -0.883126
H     -0.220849    2.459562   -0.205799
H     -0.337929   -1.233419    0.865408
H      3.664510   -3.362049    0.709803
H      1.746633   -2.005309    0.508497
H     -2.791461    2.153446   -1.191542
H      5.425969    2.339038    0.655425
