35

C     -1.236959    0.883395    1.093821
C     -2.329249    1.300356    0.109293
C     -0.031141   -0.317848   -0.731887
C      1.281852    1.776785   -0.625281
C     -0.837838   -0.457782    0.543077
C     -2.801865   -0.029713   -0.400662
C      3.264921    0.981164   -0.036189
C      2.379675   -0.070265   -0.147090
C      4.588189    0.733954    0.326231
C      4.064740   -1.543320    0.439647
N      4.466886   -2.743781    0.671443
N      2.559349    2.081071   -0.334095
N      2.784878   -1.328247    0.091712
N      4.952434   -0.537441    0.556092
N      1.186731    0.439883   -0.504874
O      5.432660    1.805499    0.424601
O     -4.784584   -1.233669    1.285425
O     -5.429425   -0.785961   -1.363700
O     -5.144527    1.199490    0.290653
O     -2.070512   -1.016077    0.208177
P     -4.579480   -0.163833   -0.031170
H     -1.680463    0.696405    2.105305
H     -0.431159    1.614959    1.140125
H     -1.921089    1.961021   -0.660124
H     -3.106499    1.846302    0.674321
H      0.234658   -1.323366   -1.110602
H     -0.631119    0.177905   -1.522577
H      0.507649    2.491242   -0.898936
H     -0.290793   -1.080122    1.260646
H     -2.681523   -0.106958   -1.503126
H      3.817700   -3.540955    0.592937
H      2.107948   -2.142777    0.008056
H      6.041206    2.150392   -0.305900
H     -4.804743   -2.167238    0.937141
H     -4.878509   -1.550471   -1.710888
