28

C     -3.048033   -0.732875   -0.906347
C      2.988269    1.285707   -1.300563
C      1.705645    0.996573   -0.947034
C      3.699274   -0.506667    0.048593
C     -2.347036   -0.874902    1.419253
C      4.007822    0.523960   -0.796949
C      1.360315   -0.052930   -0.082975
C      2.368856   -0.817444    0.423902
C     -0.034548   -0.284745    0.236103
C     -3.150548    1.229693    0.491981
C     -2.323148    0.018973    0.218395
N     -1.057931    0.360862   -0.175252
O      5.326666    0.799740   -1.143445
O      2.249375   -1.865773    1.265070
O     -2.647293    2.373210    0.346824
O     -4.468182    1.150609    0.904982
S     -0.665338   -1.555085    1.301750
H     -3.374365    0.060712   -1.618792
H     -3.922913   -1.287706   -0.498634
H     -2.300815   -1.368343   -1.387556
H      3.222247    2.111346   -1.976652
H      0.877471    1.576616   -1.325456
H      4.522747   -1.090272    0.430300
H     -3.115684   -1.662903    1.385311
H     -2.390742   -0.267062    2.344241
H      5.773361    0.377851   -1.946253
H      1.540301   -2.328321    1.700050
H     -4.795771    1.829178    1.589152
