35

C     -1.399523    0.460197   -0.678249
C     -2.477132    0.797765    0.330544
C      0.159497   -0.217520    1.138304
C      1.242783    1.952388    0.483629
C     -0.751895   -0.725914    0.042929
C     -2.838493   -0.566747    0.835484
C      3.200016    1.242272   -0.159893
C      2.427090    0.177056    0.249117
C      4.505114    1.058342   -0.622285
C      4.257841   -1.218599   -0.268546
N      4.787214   -2.392997   -0.329491
N      2.431890    2.329277   -0.000395
N      3.001653   -1.050545    0.177551
N      5.031489   -0.178979   -0.674880
N      1.216965    0.622326    0.646224
O      5.261055    2.153822   -1.028488
O     -5.609321   -1.153531    1.347038
O     -4.968540   -0.078523   -1.072156
O     -4.298066   -2.502602   -0.417455
O     -1.822340   -1.442985    0.564292
P     -4.423013   -1.102044    0.142862
H     -0.706804    1.262862   -0.900183
H     -1.853388    0.030203   -1.594098
H     -2.034337    1.371129    1.152763
H     -3.331536    1.328036   -0.132438
H      0.556250   -1.104689    1.673631
H     -0.415239    0.373636    1.893671
H      0.425474    2.614254    0.711964
H     -0.160676   -1.328351   -0.652367
H     -2.947587   -0.526550    1.955825
H      4.238691   -3.208764   -0.032339
H      2.428766   -1.872844    0.484479
H      5.247252    2.956217   -0.383151
H     -6.094085   -0.286621    1.438663
H     -4.287067    0.229023   -1.686647
