33

C      0.986202   -1.194676    1.460955
C      2.493268   -0.971328    1.448538
C      1.567957   -0.000588   -0.477099
C      4.051468    0.129574   -0.181509
C     -1.043342   -1.772946   -0.746671
C      0.404141   -0.180018    0.504332
C     -2.881950   -0.560272   -0.897400
C     -1.916734    0.128259   -0.229296
C     -4.117250    0.017796   -1.103865
C     -3.395963    1.951314    0.026085
C      2.715677    0.170419    0.503436
F      2.541668    1.374241    1.135872
N     -3.648876    3.153425    0.465510
N     -2.322059   -1.756350   -1.218979
N     -2.201382    1.374535    0.217847
N     -4.329915    1.247375   -0.637138
N     -0.788036   -0.623911   -0.140200
O      4.113130    1.250493   -1.025571
O     -5.078821   -0.712644   -1.789225
H      0.713837   -2.229229    1.193669
H      0.639371   -1.014934    2.496879
H      2.929488   -1.884724    0.956038
H      2.898852   -0.811925    2.451232
H      1.429814    0.853950   -1.136668
H      1.761026   -0.956009   -1.012863
H      4.224864   -0.808607   -0.709830
H      4.827820    0.270730    0.584064
H     -0.354852   -2.617351   -0.863704
H      0.287625    0.761850    1.035474
H     -2.908666    3.679390    0.976957
H     -1.488103    1.943515    0.738304
H      3.664941    1.066850   -1.890238
H     -5.775203   -1.278202   -1.323118
