37

C     -2.138756   -2.329723    0.342030
C      2.969034   -2.059010   -0.156792
C     -1.767463   -1.158942    0.860760
C      1.562797   -2.518063   -0.222190
C     -2.442761   -1.133821   -1.850241
C     -2.615704    1.137138    0.687476
C      4.217846    0.321815    0.166944
C      3.085048   -0.588904    0.040922
C     -2.495577   -2.363181   -1.065653
C     -2.076850   -0.014065   -1.300642
C     -2.318606    2.423423   -0.099169
C      2.012052    0.168541    0.139636
C     -0.295908    0.664729    0.199863
C      0.727169   -0.283888    0.075367
C      2.340005    1.507363    0.320838
C      0.017162    1.988671    0.377720
C      1.325455    2.449526    0.443904
C     -1.676021    0.101761    0.149142
N      0.541927   -1.531743   -0.092620
N      3.761248    1.542365    0.329866
N     -1.080636    2.923980    0.489490
O     -2.841631   -3.448355   -1.577130
O      1.627612    3.770721    0.622265
S     -1.958376    1.728042   -1.770310
H     -2.169275   -3.226818    0.966346
H      3.532075   -2.563868    0.681998
H      3.545218   -2.378032   -1.075570
H     -1.514541   -1.172097    1.914066
H      1.433461   -3.361489    0.515597
H      1.393744   -3.024333   -1.218487
H     -2.703596   -1.110636   -2.906567
H     -3.676994    0.841742    0.563238
H     -2.380816    1.284686    1.762961
H      5.236285   -0.001323    0.126531
H     -3.144969    3.111015   -0.096987
H     -0.954082    3.837555    0.944930
H      0.924424    4.465215    0.710465
