29

C      0.749173   -1.075862   -0.172978
C      3.885998    0.731719    0.644896
C     -3.276295   -2.050222   -0.222364
C     -1.291140    1.890957    0.389801
C      2.551954    0.068852    0.763178
C      0.422357    0.071100    0.786741
C     -2.996405    0.645131   -0.082185
C     -1.928292   -0.151748    0.173742
C     -4.209615    0.081195   -0.409863
C      2.265847   -0.928299   -0.311345
F      2.552676   -0.408075   -1.566523
F      2.885578   -2.142945   -0.099241
N     -2.089839   -1.503616    0.097966
N     -4.303284   -1.249164   -0.467560
N     -2.588894    1.913503    0.055043
N     -0.849700    0.631181    0.472151
O      4.066777    1.378152   -0.569078
O     -5.322395    0.833581   -0.678451
O      1.482174    0.946016    0.652771
H      0.237943   -0.859887   -1.121708
H      0.514501   -2.052996    0.253790
H      3.992188    1.431936    1.498602
H      4.657186   -0.051500    0.793623
H     -3.354612   -3.124866   -0.269660
H     -0.664201    2.760184    0.573682
H      2.487067   -0.428540    1.735299
H      0.420492   -0.318560    1.821163
H      4.969110    1.178589   -0.933622
H     -5.266350    1.784184   -1.035447
