29

C     -1.049020    0.532625    1.386626
C     -3.469215   -0.347055   -1.277329
C      2.490639   -2.346498    0.219169
C      1.768836    1.999820   -0.210230
C     -2.483750    0.457727   -0.461742
C     -0.486129    1.040815    0.093745
C      3.041479    0.241776   -0.121528
C      1.712618   -0.127339    0.035408
C      4.074099   -0.675706   -0.107168
C     -2.416632   -0.018659    0.969516
F     -2.453382   -1.377959    1.037942
F     -3.427274    0.593084    1.695401
N      1.469209   -1.441752    0.205277
N      3.775149   -1.964749    0.064645
N      3.037810    1.574603   -0.272072
N      0.929991    0.941075   -0.017699
O     -3.212412   -1.711240   -1.194207
O      5.394114   -0.242522   -0.270601
O     -1.166615    0.272177   -0.878664
H     -1.226974    1.331249    2.133507
H     -0.428216   -0.260192    1.851846
H     -4.466993   -0.171731   -0.825694
H     -3.538854    0.004555   -2.317955
H      2.308572   -3.406464    0.354922
H      1.484228    3.055016   -0.305005
H     -2.682923    1.540972   -0.515495
H     -0.836801    2.078053   -0.050981
H     -3.862536   -2.145174   -0.599733
H      5.720983    0.573491    0.232793
