28

C      2.957166   -0.499101    0.930573
C     -0.083576    1.483813   -1.124017
C      2.832986   -0.792250   -0.570040
C      0.623007    0.339712   -0.804405
C     -1.334858   -0.467638    0.156678
C      2.026905    0.296054   -1.204479
C     -2.033414    0.687894   -0.170645
C     -2.067789   -1.438356    0.826847
C     -3.997177   -0.070144    0.769350
N     -5.251647    0.136212    1.049212
N     -1.370741    1.648574   -0.815097
N     -0.035283   -0.630781   -0.156710
N     -3.321426    0.877781    0.126882
N     -3.364767   -1.196578    1.102970
O      4.131010   -0.703371   -1.076178
O      2.608391    1.520406   -0.875838
O     -1.472307   -2.613710    1.194238
H      3.014055    0.567331    1.130227
H      2.038953   -0.885348    1.417057
H      3.819758   -1.007544    1.378722
H      0.391887    2.321932   -1.655501
H      2.469375   -1.801328   -0.754159
H      2.067435    0.220658   -2.311950
H     -5.720362    1.025499    0.776688
H     -3.821736    1.776403   -0.140526
H      4.520099    0.181622   -0.864016
H      1.992771    2.089770   -0.349803
H     -1.618715   -3.067511    2.082454
