28

C      3.073783   -1.054947    0.700578
C      0.250671   -0.186870    1.191034
C      2.950501    0.450264    0.729695
C      0.576137    0.464026    0.019724
C     -1.662398    0.175097   -0.648244
C      1.960223    0.970015   -0.248720
C     -1.982950   -0.474589    0.523358
C     -2.658890    0.351270   -1.580561
C     -4.166090   -0.751262   -0.138777
N     -5.366552   -1.176447    0.065952
N     -0.995976   -0.643593    1.435308
N     -0.397445    0.634060   -0.886783
N     -3.218463   -0.942160    0.796503
N     -3.880886   -0.115568   -1.301275
O      4.191189    1.048894    0.405666
O      2.342710    0.635501   -1.546122
O     -2.402233    0.999199   -2.784749
H      2.218226   -1.553472    0.214994
H      3.960487   -1.283069    0.040071
H      3.274888   -1.425288    1.728028
H      1.059440   -0.312677    1.911203
H      2.727556    0.839981    1.755686
H      1.952084    2.075058   -0.182794
H     -5.602851   -1.667758    0.955408
H     -3.436553   -1.439439    1.708708
H      4.171489    1.502802   -0.455148
H      2.666269   -0.314549   -1.574586
H     -1.604367    1.587912   -2.834156
