32

C      3.455201    1.158092   -0.687100
C      0.377600    0.113416    1.474012
C      3.232091   -0.087462    0.136427
C      0.709519   -0.127486    0.029893
C     -1.692604   -0.409244   -0.316345
C      2.003915   -0.832716   -0.217067
C     -1.893073    0.554974    0.679224
C     -2.756768   -0.806587   -1.097038
C     -4.143902    0.662517    0.070153
N     -5.305124    1.186556    0.271112
N     -0.794951    0.963807    1.485753
N     -0.386757   -0.948749   -0.485594
N     -3.121998    1.067757    0.845945
N     -3.962748   -0.265229   -0.891414
O      3.387981    0.191390    1.490729
O      1.984764   -2.050287    0.443739
O     -2.504871   -1.766486   -2.071106
H      2.728661    1.292086   -1.493774
H      4.465791    1.204565   -1.143196
H      3.386007    2.032076   -0.003309
H      0.029213   -0.871400    1.906424
H      1.185423    0.485368    2.097054
H      4.100432   -0.767580   -0.116938
H      0.628768    0.843051   -0.494362
H      2.045718   -1.039501   -1.315739
H     -6.090476    0.870325   -0.330388
H     -0.877427    1.833640    2.036013
H     -0.265539   -1.854753   -0.943040
H     -3.258034    1.797087    1.603927
H      3.668605    1.125413    1.605815
H      1.986863   -2.826758   -0.163079
H     -2.322280   -2.727882   -1.773160
