31

C     -2.439281   -0.439004   -1.662749
C      2.914398   -1.240577    1.914556
C      1.111093    0.890527   -1.504406
C     -2.511782    0.702576   -0.678387
C      2.698186   -0.259525   -0.569133
C     -2.680576    0.255590    0.739007
C     -1.212899    0.073624    1.152705
C      1.673033   -0.046166    0.340188
C      3.836506   -0.967769   -0.231651
C     -0.551279    1.115322    0.316502
N      1.816408   -0.547858    1.561675
N      3.903838   -1.442446    1.025318
N      2.307058    0.338219   -1.698046
N      0.699375    0.663106   -0.244251
O     -1.372754   -1.280272   -1.424065
O     -3.203554    1.336312    1.468768
O     -1.166635    0.349080    2.517059
O      4.842423   -1.160110   -1.172537
O     -1.415071    1.512124   -0.672578
H     -2.379773   -0.029036   -2.671443
H     -3.391928   -1.018551   -1.553235
H      3.044369   -1.660831    2.923152
H      0.563916    1.435822   -2.252161
H     -3.403823    1.320214   -0.980427
H     -3.267194   -0.648662    0.877409
H     -0.865884   -0.948653    0.957613
H     -0.388347    2.013786    0.982020
H     -1.032221   -1.740417   -2.223288
H     -2.842774    2.190077    1.136604
H     -0.789815   -0.381240    3.046764
H      5.504988   -0.385259   -1.305494
