29

C      0.155289    1.525165    0.105900
C     -4.035151   -0.215960    0.260929
C     -0.366213    0.362635   -0.410696
C     -2.574286   -0.053797    0.549803
C      1.789660   -0.602591   -0.374326
C     -1.804461    0.204159   -0.726855
C      2.299885    0.571211    0.144344
C      2.566847   -1.710315   -0.637587
C      4.416935   -0.467806    0.146874
N      5.669441   -0.388960    0.400645
N      1.489406    1.617531    0.379274
N      0.471212   -0.672095   -0.636569
N      3.626683    0.588482    0.389077
N      3.895064   -1.599147   -0.358444
O     -4.690679   -0.396451    1.500485
O     -2.069931   -1.167760    1.188193
O     -2.282539    1.314968   -1.395048
O      2.045511   -2.892216   -1.161199
H     -0.513952    2.353650    0.286976
H     -4.424406    0.676769   -0.257242
H     -4.217696   -1.121453   -0.377534
H     -2.476581    0.814234    1.257262
H     -1.950080   -0.683036   -1.375175
H      6.155599    0.424607    0.783945
H      4.036179    1.479466    0.786770
H     -4.284428    0.182876    2.189089
H     -2.677433   -1.568465    1.838322
H     -2.056109    1.320908   -2.341897
H      1.806233   -2.857636   -2.155317
