57

C     -2.811000   -5.262601    1.262989
C     -0.324747   -4.710636   -0.375061
C     -2.300252   -3.878765    0.940293
C     -3.687214    5.144232    0.126670
C     -3.346101    6.404498   -0.281825
C      3.233076   -0.200810    0.251812
C     -2.805864    4.098925   -0.161921
C     -2.155462    6.636857   -0.964252
C      2.619337   -0.125695   -1.086622
C      2.557454   -1.166191    1.158657
C      0.326606    4.330476   -1.861728
C     -1.366129    1.137118   -0.840344
C     -1.548571   -3.814882   -0.347036
C     -1.631943    4.316066   -0.834305
C     -0.616732    3.500032   -1.220106
C     -1.295310    5.600193   -1.243045
C      1.195781    0.273657   -1.016913
C     -0.396805    2.069128   -1.039395
C     -1.061983   -2.423680   -0.525429
C      0.171086   -0.638118   -0.813497
C     -1.859992   -1.292255   -0.549344
C      4.568037   -1.720388    2.463113
N      4.927033   -2.677893    1.674164
N      5.528763   -1.190540    3.392207
N      3.267181   -1.183136    2.439041
N     -0.095403    5.593495   -1.868769
N      0.878681    1.575464   -1.121482
N      0.188864   -1.968135   -0.693338
N     -1.092712   -0.200169   -0.727613
O     -3.239263   -1.250679   -0.414115
H     -3.509477   -5.279667    2.099352
H     -2.029982   -6.011645    1.405862
H     -3.402673   -5.584551    0.356628
H     -0.362132   -5.535173    0.341460
H     -0.190173   -5.040160   -1.426561
H      0.598633   -4.116374   -0.112355
H     -3.175350   -3.209808    0.855793
H     -1.653814   -3.471772    1.752302
H     -4.612920    4.984825    0.654242
H     -3.962335    7.287138   -0.107896
H      3.210989    0.826369    0.725207
H      4.348619   -0.403305    0.191409
H     -3.063128    3.129647    0.177461
H     -1.893929    7.649988   -1.285354
H      2.695472   -1.074588   -1.671432
H      3.154153    0.703330   -1.646741
H      1.506625   -0.803113    1.326781
H      2.545184   -2.165262    0.706861
H      1.247776    3.949171   -2.275034
H     -2.393985    1.397308   -0.793629
H     -2.244905   -4.050780   -1.204048
H      4.320178   -3.123555    0.978172
H      6.398237   -0.771208    3.042274
H      5.286717   -1.261492    4.396007
H      2.812340   -0.813252    3.265739
H      0.361479    6.450592   -2.262025
H     -3.818013   -0.638233   -0.986342
