31

C     -0.134926    3.220064   -0.754507
C     -3.021322   -0.388458    0.664513
C     -1.748638   -1.015016   -1.314495
C     -1.021207   -1.748428    0.926400
C     -0.774431    2.066675   -0.905719
C      3.722433   -0.571802    0.068884
C      3.144304   -0.465409    1.324776
C      3.019920   -0.261061   -1.078393
C      1.836814   -0.039402    1.433806
C      1.709960    0.166464   -0.979712
C      1.138698    0.270427    0.278475
C     -1.625737   -0.593734    0.116871
O     -0.849570    1.484621    1.688382
P     -0.569805    0.831462    0.356603
H     -0.221208    4.020801   -1.498576
H      0.501563    3.434851    0.102110
H     -3.622490    0.311385    0.065490
H     -3.026580   -0.164746    1.748482
H     -3.534474   -1.389513    0.564530
H     -2.809107   -0.917160   -1.687824
H     -1.537528   -2.119461   -1.408718
H     -1.063692   -0.505240   -2.002397
H     -1.420742   -2.703308    0.586442
H      0.079607   -1.721490    0.797414
H     -1.278583   -1.618923    2.001749
H     -1.387211    1.933908   -1.786427
H      4.755846   -0.910369    0.010297
H      3.727954   -0.718291    2.200019
H      3.502919   -0.355798   -2.041568
H      1.357122    0.054340    2.395312
H      1.150111    0.412613   -1.872218
