28

C      1.712919    0.342277   -1.345414
C      2.142514    0.321551    1.069887
C     -1.644615   -0.109665   -1.575101
C     -0.387513    1.904322    0.689178
C      0.909921   -1.502819    0.022204
C     -1.585230   -1.285612    0.597818
C     -0.229117   -1.838128    0.879748
C     -0.168636    0.693663    0.241092
C     -1.819104    2.149019    0.753575
C      1.120921   -0.017469    0.005536
C     -1.468294    0.076554   -0.051617
O     -0.090344   -2.564708    1.825864
O     -2.405124    3.217149    1.138294
O     -2.419742    0.998306    0.316574
H      1.756306    1.439001   -1.494154
H      1.154459   -0.161704   -2.158421
H      2.768569   -0.054518   -1.322634
H      2.990911   -0.357091    0.981233
H      2.411384    1.398816    1.071479
H      1.649764    0.131497    2.066211
H     -2.760188   -0.097906   -1.753127
H     -1.247551    0.785093   -2.085766
H     -1.185870   -1.037857   -1.923539
H      0.355214    2.665054    0.987341
H      1.850382   -1.968577    0.438198
H      0.830198   -1.936355   -0.996774
H     -2.160399   -1.220951    1.521536
H     -2.081737   -1.968944   -0.111937
