28

C     -2.260705   -0.145509    0.886182
C     -1.584454    0.697696   -1.309102
C      1.786548    0.474443   -1.305740
C      0.046888    1.579663    1.314216
C     -0.790858   -1.530557   -0.525442
C      1.670993   -1.294077    0.359056
C      0.418978   -2.074819    0.104698
C      0.047481    0.567000    0.473503
C      1.421418    1.908469    1.621810
C     -1.134775   -0.119776   -0.121021
C      1.430573    0.180608    0.157065
O      0.419517   -3.241410    0.450081
O      1.785274    2.851589    2.410980
O      2.218840    1.033243    0.918990
H     -3.215037   -0.340778    0.342189
H     -2.356702    0.822179    1.431910
H     -2.085010   -0.959219    1.629062
H     -2.273562    0.118668   -1.956844
H     -2.059678    1.619626   -0.903242
H     -0.701328    0.979309   -1.910218
H      2.900498    0.331097   -1.387511
H      1.604027    1.520932   -1.553006
H      1.341530   -0.269545   -1.967855
H     -0.809422    2.119609    1.740925
H     -1.661961   -2.169871   -0.289865
H     -0.667718   -1.540279   -1.638709
H      2.434082   -1.670991   -0.350702
H      2.074563   -1.447301    1.378591
