58

C     -4.288558   -0.276891    0.048032
C     -5.395518   -0.603742    0.968864
C     -3.057115   -0.013751    0.447101
C     -6.529911    0.372105    0.871063
C      8.189658    1.261033   -1.723812
C      9.157226    1.665092   -0.844888
C      6.844639    1.214141   -1.335086
C     -2.025175    0.299986   -0.538185
C     -7.089168    0.372194   -0.535033
C      2.126638   -0.341260   -0.272388
C      1.315600   -0.509813    0.752703
C      7.453001    1.984759    0.834994
C     -1.568384   -2.630205    0.612170
C      3.920414    1.288626    0.160483
C      8.756364    2.019948    0.424698
C      3.605589   -0.162737   -0.092244
C      6.444654    1.567608   -0.066705
C     -0.842112   -0.652967   -0.535119
C     -0.126671   -0.694857    0.752297
C     -1.315540   -2.081810   -0.771094
C     -0.426033   -2.049861    1.397199
C     -8.223281    1.358793   -0.584511
Cl     9.996568    2.538480    1.551107
O      4.241483   -0.634733   -1.184394
O     -2.434085   -2.121155   -1.584850
O     -0.683599   -1.957941    2.743579
O     -8.815534    1.498525   -1.677831
O     -8.611531    2.088244    0.512375
O      5.198990    1.547533    0.381339
H     -4.547097   -0.264341   -1.027202
H     -4.973098   -0.593665    2.000744
H     -5.807042   -1.624658    0.766023
H     -2.836571   -0.035495    1.494821
H     -6.184421    1.408309    1.119204
H     -7.352183    0.154395    1.568954
H      8.429658    0.967929   -2.736298
H     10.187935    1.698451   -1.150409
H      6.100573    0.914536   -2.049024
H     -2.394930    0.323620   -1.584546
H     -1.634194    1.316426   -0.332512
H     -6.314390    0.697031   -1.259649
H     -7.418087   -0.633941   -0.801793
H      1.717629   -0.333393   -1.250933
H      1.805391   -0.509050    1.742344
H      7.156795    2.270185    1.845893
H     -2.552608   -2.374759    1.021704
H     -1.526722   -3.758851    0.599089
H      3.427690    1.898350   -0.662537
H      3.300769    1.586892    1.062556
H      3.894922   -0.801878    0.778222
H     -0.255561   -0.380206   -1.431323
H     -0.551502    0.043852    1.504971
H     -0.457108   -2.678642   -1.195620
H      0.466826   -2.713130    1.216711
H      4.391012   -1.619538   -1.204075
H     -2.667101   -3.065804   -1.716263
H     -0.148886   -1.230764    3.176879
H     -9.076309    2.992795    0.425514
