36

C      3.314031    2.106782   -1.099432
C      1.740361   -2.417737    0.438534
C      3.099579   -2.505868    0.255135
C      1.851804   -0.139701   -0.231296
C     -4.095553    2.289930    0.815607
C     -1.952636    1.972765    1.765137
C      1.116728   -1.222064    0.191672
C     -3.123572    2.696079    1.686281
C      3.833823   -1.419224   -0.168932
C     -3.951905    1.156460   -0.010352
C      3.220757   -0.211013   -0.421007
C     -1.740453    0.844305    0.981964
C     -2.762294    0.477322    0.115276
C     -2.489009   -0.730209   -0.676403
C     -1.068556   -1.065345   -0.972519
C     -0.335122   -1.081961    0.374400
O     -3.307171    3.824140    2.485596
O      5.226648   -1.492366   -0.361783
O     -4.946028    0.790402   -0.864650
O     -3.435749   -1.441789   -1.078907
O     -0.981032   -2.340341   -1.525289
O      3.965614    0.875781   -0.846745
O     -0.572729    0.126156    1.062165
H      4.131975    2.860438   -1.242027
H      2.792663    2.408530   -0.151295
H      2.638633    2.032603   -1.953963
H      1.201514   -3.301546    0.774486
H      3.639142   -3.433721    0.438166
H      1.366928    0.832208   -0.435343
H     -5.027924    2.820459    0.716398
H     -1.146600    2.246805    2.436638
H     -0.603206   -0.316751   -1.645414
H     -0.755267   -1.959717    0.930290
H      5.705653   -2.369367   -0.184028
H     -4.942527    0.038930   -1.486639
H     -1.608519   -2.951377   -1.058867
