60

C     -3.170507    3.558120    1.956535
C     -2.002078    5.700447    1.694447
C     -4.016555   -4.664189   -0.056070
C     -2.050423   -3.878937   -1.268501
C      5.746225    0.179950   -0.653921
C      5.436089   -2.178204   -1.359496
C     -1.160256    3.632545    0.538095
C     -3.016039   -2.615900    0.733278
C     -1.015039    2.170513    0.782209
C     -1.997277   -1.610277    1.042817
C      3.773664   -0.516643   -2.025016
C     -1.839769    4.215882    1.787711
C     -2.684522   -3.878417    0.071557
C      4.734923   -0.922205   -0.900060
C     -0.387726    1.373987   -0.320475
C      3.040314    0.707914   -1.690937
C     -1.274942   -0.951046   -0.048548
C      1.759766    0.634658   -0.944540
C      0.972767    1.844135   -0.590408
C      1.112542   -0.402308   -0.488838
C     -0.121435   -0.030099    0.196324
O      3.516370    1.814626   -2.047353
O     -1.562846   -1.108290   -1.203409
O      1.416285    2.993585   -0.545141
O      1.608772   -1.721892   -0.672848
O      0.073254    0.025272    1.585148
K      0.000000    0.000000    0.000000
H     -3.970128    4.308917    2.200425
H     -3.477068    3.088065    1.004176
H     -3.155366    2.828105    2.806403
H     -2.678212    6.024215    2.512397
H     -1.002084    6.173997    1.871271
H     -2.396060    6.062762    0.745177
H     -3.963784   -5.551665    0.588717
H     -4.229373   -4.906792   -1.119991
H     -4.867954   -4.059407    0.310616
H     -0.972267   -3.700872   -1.257071
H     -2.621674   -3.369622   -2.074099
H     -2.119371   -4.979097   -1.614289
H      6.476743   -0.198328    0.063413
H      5.251882    1.069933   -0.220149
H      6.177961    0.441435   -1.625919
H      6.375336   -2.297043   -0.753448
H      5.625094   -2.210364   -2.442160
H      4.758457   -3.032964   -1.090058
H     -0.228953    4.191255    0.417383
H     -1.795241    3.869818   -0.344959
H     -3.836251   -2.116386    0.143108
H     -3.526887   -2.893700    1.715270
H     -1.985061    1.696453    1.103455
H     -0.373866    2.073700    1.711973
H     -1.288180   -1.932153    1.864862
H     -2.558254   -0.758936    1.564888
H      3.173345   -1.392192   -2.268215
H      4.437507   -0.361637   -2.926430
H     -1.222642    4.008861    2.684654
H     -2.014451   -4.493666    0.746814
H      4.179230   -1.152336    0.025964
H     -1.025745    1.352584   -1.229692
H      1.961758   -2.156164    0.155404
