32

C      2.387482   -0.028382   -0.162453
C      1.066497    0.351071    1.836570
C      0.040828   -2.032595    0.222603
C     -2.281945   -0.561498    0.960586
C      0.387133    1.099064   -1.714714
C      0.262703   -0.432337   -1.698288
C     -0.961990    1.487301    0.346221
C      0.436639    1.544799   -0.281967
C      1.021335    0.280829    0.372110
C     -0.049908   -0.639673   -0.205712
C     -1.350334    0.056226   -0.004830
O     -2.084719    0.194735   -1.212870
H     -1.891959   -0.922357    1.897406
H     -3.108525    0.150470    1.161105
H     -2.773632   -1.436442    0.448973
H      2.667037    0.701039   -0.959540
H      3.166916    0.131123    0.642021
H      2.521513   -1.072456   -0.484435
H      1.796791   -0.413899    2.206163
H      0.152904    0.219162    2.393261
H      1.483364    1.356682    2.140689
H      1.106344   -2.343942    0.251804
H     -0.483208   -2.196192    1.162452
H     -0.461188   -2.685826   -0.539041
H      1.277497    1.429252   -2.263320
H     -0.489721    1.555669   -2.245725
H     -0.621671   -0.776400   -2.245725
H      1.167154   -0.929313   -2.009267
H     -1.632753    2.232851   -0.105472
H     -0.898907    1.667674    1.415870
H      0.980682    2.435740   -0.069375
H     -2.832358   -0.422375   -1.255100
