39

C     -2.194999   -2.502342   -0.523806
C     -0.861795    2.468007   -0.586365
C      1.855508    0.320346   -1.688794
C      3.394109    1.091885    0.095973
C     -2.523125    1.428957    0.863418
C     -0.017047   -2.599887    0.505979
C     -2.657824   -0.007899    0.339731
C      1.228738   -1.953249   -0.114944
C     -1.165178   -1.835181   -0.080137
C     -1.044306    1.779658    0.725150
C     -1.246456   -0.338409   -0.209536
C      1.767453   -0.821528    0.637709
C     -0.435455    0.384528    0.758000
C      1.013559    0.393510    0.807836
C      2.026297    0.441673   -0.216912
H     -2.215442   -3.591572   -0.467340
H     -3.036889   -1.990238   -0.950883
H      0.198397    2.562602   -0.895784
H     -1.234867    3.507046   -0.462087
H     -1.502698    2.023740   -1.392004
H      2.135075    1.318652   -2.126477
H      2.639482   -0.378827   -2.103035
H      0.918111    0.035938   -2.101509
H      4.184904    0.693663   -0.530500
H      3.678895    0.846569    1.160620
H      3.253818    2.186583    0.038610
H     -3.119023    2.121742    0.233513
H     -2.833139    1.522070    1.903979
H     -0.068369   -3.661537    0.176472
H      0.056777   -2.479921    1.588856
H     -3.410250   -0.048393   -0.461220
H     -2.850331   -0.648636    1.199496
H      0.971249   -1.773242   -1.176381
H      1.982660   -2.783443   -0.147602
H     -0.673644    2.387173    1.545936
H     -1.295153    0.001041   -1.237328
H      2.567209   -1.098268    1.388685
H     -0.806713   -0.004352    1.767625
H      1.320465    1.001541    1.735056
