56

C      7.776197   -0.162969    0.438500
C     -4.662815   -1.459865   -0.090613
C     -5.283502   -1.222175    1.263239
C      3.582281   -0.938406   -1.305334
C      2.721952   -1.374243    0.925126
C      4.621595   -0.211090   -0.518438
C      4.090801   -2.010389    0.920737
C     -2.697703    3.012771   -1.679309
C     -2.907465   -0.804240    1.317964
C     -0.352285    2.474764   -1.695836
C     -1.661544    2.134198   -1.440439
C      2.296264   -1.195180   -0.531528
C     -3.364401   -0.809792   -0.147117
C     -4.211830   -0.446559    2.032237
C     -3.991255    2.630678   -1.408915
C     -5.136222    3.545045   -1.650184
C     -1.939432    0.896267   -0.938073
C     -4.192116    1.368365   -0.904451
C      0.397822    0.406439   -0.971598
F     -4.997231    4.708561   -0.902719
F     -5.152469    3.916482   -2.982627
N      0.665362    1.647337   -1.474283
N      1.276318   -0.360837   -0.757892
N     -0.902243    0.081964   -0.723375
N      5.037809   -0.942320    0.665069
N     -3.221738    0.492558   -0.660457
O     -4.125523   -0.867139    3.353616
O     -5.354924    1.013212   -0.656190
O      6.942858   -2.209721    1.887247
O      6.860595   -2.466424   -0.542337
S      6.640192   -1.519482    0.587407
H      8.774609   -0.430226    0.829147
H      7.386681    0.744579    0.983025
H      7.861443    0.141923   -0.632908
H     -5.363192   -1.290005   -0.931859
H     -4.491686   -2.583277   -0.139327
H     -6.252812   -0.732878    1.256859
H     -5.418953   -2.170416    1.858213
H      4.020302   -1.874027   -1.697605
H      3.338752   -0.317058   -2.193163
H      2.713471   -0.401640    1.455565
H      2.030691   -2.093488    1.423256
H      4.323025    0.796728   -0.200398
H      5.508868   -0.103485   -1.163431
H      4.337774   -2.479880    1.896004
H      4.158248   -2.768746    0.120220
H     -2.456248    3.986951   -2.076287
H     -2.151647   -0.016320    1.495155
H     -2.576519   -1.808844    1.580112
H     -0.123790    3.464745   -2.098156
H      2.011007   -2.261349   -0.839414
H     -2.609840   -1.478966   -0.659385
H     -4.397212    0.629830    1.953307
H     -6.067456    3.032634   -1.364410
H      1.674564    1.921056   -1.675395
H     -4.985429   -1.235651    3.677962
