49

C     -4.667430    1.513055    0.055197
C     -2.383815   -2.948304    0.576297
C      5.909380    0.638717   -0.308862
C      2.418411   -1.677330   -1.172248
C      3.572351   -0.926135   -0.895262
C     -0.692299    2.460332   -1.607126
C     -0.710700    0.972224   -1.794549
C     -0.357779   -0.108554    1.837391
C     -0.983528   -1.453875    1.734144
C     -0.064622   -1.938604   -0.974937
C     -3.483848    0.895870   -0.608764
C      1.212375   -1.231854   -0.724710
C      0.231843    2.780410   -0.485415
C      3.484588    0.249654   -0.178324
C     -1.283828   -1.180361   -0.628498
C      1.183188   -0.072725   -0.025522
C      2.265946    0.704241    0.276413
C      0.392319    1.955203    0.710997
C     -0.037231    0.527886    0.529939
C     -1.121528    0.320073   -0.501286
N     -1.895390   -1.607760    0.620627
O     -3.529942    0.383129   -1.752646
O      0.897944    3.805887   -0.580722
O      4.621498    0.989856    0.094337
O      1.798712    1.808495    1.004535
O     -2.283125    0.880042    0.047605
H     -5.078115    0.742609    0.741221
H     -5.451884    1.786378   -0.678338
H     -4.361888    2.369576    0.695839
H     -3.316165   -3.079966    1.194044
H     -1.635691   -3.680427    0.887039
H     -2.717530   -3.165437   -0.473135
H      6.508680    1.587854   -0.352964
H      5.853072    0.296098   -1.373304
H      6.405375   -0.110811    0.332872
H      2.486603   -2.592248   -1.730450
H      4.541150   -1.260249   -1.240234
H     -0.400643    3.001706   -2.530116
H     -1.722517    2.751832   -1.261866
H     -1.384326    0.678955   -2.629515
H      0.309818    0.639710   -2.036572
H      0.625625   -0.248744    2.377494
H     -0.928338    0.588382    2.487217
H     -0.271407   -2.294685    1.711752
H     -1.600152   -1.609559    2.663757
H     -0.101280   -2.302381   -2.032937
H     -0.039544   -2.848053   -0.305682
H     -2.053054   -1.379231   -1.414404
H     -0.161278    2.389120    1.544671
