51

C      5.357241   -0.041712    0.852322
C     -4.601728    2.598621   -1.408926
C     -3.579724   -3.140644    2.612518
C     -4.443556    1.429015   -2.117299
C     -3.852778    2.830314   -0.274173
C     -3.716593   -1.789756    2.776317
C     -2.831742   -3.603731    1.555023
C     -3.520628    0.521117   -1.647542
C     -2.925581    1.880330    0.168318
C     -3.115995   -0.917651    1.897692
C     -2.234438   -2.707274    0.680713
C      4.078729   -0.771631   -1.455602
C      3.024475    1.414497   -1.640349
C      3.016259   -1.157529   -0.421148
C      2.224428    2.042145   -0.513419
C     -2.744151    0.699560   -0.519281
C     -2.358177   -1.342604    0.824895
C      4.241976    0.710768   -1.127014
C      2.989069   -0.059510    0.589143
C      1.851062    0.898745    0.427507
C     -0.550345    0.306960    0.525580
C     -1.754641   -0.323220   -0.045772
N      4.215861    0.670808    0.324035
O     -0.592798    0.890405    1.632029
O     -1.388734   -0.998023   -1.248660
O      0.686882    0.298412   -0.107597
H      6.124037   -0.269829    0.083473
H      5.820662    0.561927    1.662488
H      5.008024   -0.976188    1.304965
H     -5.322398    3.351023   -1.742098
H     -4.063432   -3.831087    3.320038
H     -5.041261    1.268036   -3.003760
H     -3.967601    3.756518    0.300306
H     -4.303962   -1.412112    3.606740
H     -2.739859   -4.675056    1.448608
H     -3.417644   -0.386513   -2.222837
H     -2.386882    2.145219    1.065831
H     -3.246338    0.137786    2.058531
H     -1.637941   -3.074210   -0.152912
H      5.022291   -1.308263   -1.300980
H      3.672383   -0.830620   -2.473611
H      2.310983    0.718405   -2.170725
H      3.266338    2.194903   -2.390379
H      2.046912   -1.364423   -0.897650
H      3.386174   -2.079849    0.076632
H      2.823097    2.820615   -0.011919
H      1.348106    2.515023   -0.970871
H      5.187700    1.121958   -1.502657
H      3.080899   -0.442104    1.636234
H      1.625887    1.365508    1.407679
H     -2.070546   -1.645080   -1.470436
