62

C     -3.340731    1.970690    1.830565
C      7.815285    0.084183    1.096139
C     -4.797651    2.679318   -1.140999
C     -4.760303    1.226434   -0.620188
C      3.688061    0.541795    0.468279
C      3.472289   -0.282617   -1.816437
C     -3.889859    3.337023   -0.117359
C      4.628357   -0.635142    0.444682
C      4.992413   -0.329417   -1.896868
C     -1.861001   -2.649263    0.766382
C     -4.137176   -3.440857    1.223523
C      0.372938   -1.967923    0.350088
C     -3.200064   -2.391155    0.768997
C     -0.990257   -1.692375    0.348943
C      3.131555    0.867977   -0.902129
C     -3.266247    1.065362   -0.501632
C     -4.851337   -4.120244    0.073780
C     -1.482925   -0.455196   -0.072286
C     -3.629677   -1.148471    0.341219
C      0.755964    0.162577   -0.466970
C     -2.961825    2.229468    0.404271
F     -5.577493   -3.206260   -0.646184
F     -3.936778   -4.796784   -0.700945
N      1.242098   -1.033846   -0.059958
N      1.725866    1.122411   -0.894192
N     -0.561211    0.429887   -0.468159
N      5.592416   -0.606967   -0.610239
N     -2.801052   -0.190039   -0.073562
O     -4.851192   -0.939431    0.353540
O     -1.686285    2.715957    0.319839
O      7.813937    0.381910   -1.530842
O      6.401433    1.913500   -0.203797
S      6.876580    0.491763   -0.357349
H     -4.412640    2.263677    2.016208
H     -3.230165    0.900631    2.102968
H     -2.734572    2.628604    2.485860
H      7.803950   -1.008558    1.301700
H      8.845103    0.480615    0.937798
H      7.413396    0.651256    1.978722
H     -4.422177    2.747674   -2.165774
H     -5.811379    3.100325   -0.993648
H     -5.276593    1.321394    0.362839
H     -5.243593    0.593186   -1.353229
H      4.231467    1.425210    0.862419
H      2.862910    0.316772    1.168039
H      3.098916   -0.054148   -2.830030
H      3.153754   -1.265368   -1.443680
H     -4.426835    3.840828    0.685215
H     -3.309916    4.114461   -0.674610
H      4.056169   -1.604471    0.352680
H      5.088142   -0.684850    1.455221
H      5.388869    0.611139   -2.316908
H      5.227603   -1.206067   -2.569942
H     -1.488998   -3.629090    1.101122
H     -4.877793   -3.065653    1.979788
H     -3.580571   -4.248932    1.759845
H      0.691285   -2.961886    0.694231
H      3.657779    1.761134   -1.310130
H     -2.846169    1.340780   -1.502224
H     -5.578284   -4.865917    0.452997
H      1.342648    2.051897   -1.211451
H     -1.548436    3.111091   -0.590141
