51

C      4.266270   -2.303497   -0.621883
C     -3.360180    3.859149    0.426035
C     -3.503677   -3.171290    1.597920
C     -3.977608    3.286224   -0.657717
C     -2.368677    3.163507    1.055886
C     -2.329565   -2.523670    1.860060
C     -4.259580   -2.811734    0.516792
C     -3.627735    2.050976   -1.115590
C     -1.992581    1.904281    0.610426
C     -1.916022   -1.497847    1.014167
C     -3.836070   -1.795519   -0.308391
C      4.043515    0.012209    1.271567
C      3.716295    1.339105   -0.745840
C      2.721215   -0.710400    1.345110
C      2.261445    1.487175   -0.352715
C     -2.611876    1.328627   -0.477175
C     -2.640981   -1.107844   -0.075467
C      4.319856    0.062813   -0.199084
C      2.331387   -0.981120   -0.094854
C      1.575871    0.197482   -0.679824
C     -0.793425   -0.004217   -1.300094
C     -2.229578   -0.024169   -0.980819
N      3.598485   -1.036248   -0.804988
O     -0.389759   -0.154878   -2.478524
O     -2.932732   -0.229760   -2.192856
O      0.211211    0.178683   -0.350096
H      3.520866   -3.048436   -0.278788
H      4.632814   -2.633717   -1.614175
H      5.152423   -2.228010    0.038311
H     -3.650432    4.844683    0.777984
H     -3.827833   -3.973780    2.257713
H     -4.764235    3.838293   -1.159768
H     -1.843633    3.567052    1.922021
H     -1.731217   -2.824184    2.733552
H     -5.186482   -3.330927    0.318373
H     -4.130618    1.611588   -1.976490
H     -1.199728    1.352341    1.113506
H     -0.976694   -1.011002    1.254800
H     -4.418741   -1.487867   -1.176747
H      4.825299   -0.552471    1.818990
H      3.982795    1.048027    1.705822
H      3.807240    1.282128   -1.854422
H      4.291251    2.208441   -0.337681
H      2.847316   -1.621233    1.930390
H      1.990678   -0.065305    1.853348
H      1.851703    2.312896   -0.961029
H      2.233903    1.706811    0.733466
H      5.394663    0.077948   -0.441576
H      1.759913   -1.913229   -0.213344
H      1.638119    0.051302   -1.787224
H     -2.474875    0.270611   -2.919081
