47

C      0.444095   -2.077715   -1.385160
C     -2.645151   -3.197963    0.460834
C      4.420573    0.883920   -0.452147
C      3.598815    0.649681   -1.538901
C      3.909125    0.795341    0.822281
C      2.287401    0.332146   -1.351387
C      2.595354    0.476505    0.982866
C     -2.521008    2.275724   -0.380404
C     -1.983119    3.463145    0.111200
C      0.127525   -1.030533    1.345920
C     -0.434894   -2.406505    1.069387
C     -2.493670   -0.140044   -0.895355
C     -0.007012    2.281430    0.630620
C     -0.296680   -0.874443   -0.934643
C     -1.821973    1.114917   -0.368889
C      1.753815    0.237934   -0.077857
C     -0.714717    3.449562    0.617747
C     -0.537425    1.109985    0.145164
C     -1.647602   -1.121942   -0.272369
C      0.356715   -0.095321    0.193360
N     -1.542137   -2.413779    0.064515
O     -0.132200    4.622739    1.124457
Cl     0.686865    0.000000    0.000000
H      1.410043   -2.206552   -0.881396
H     -0.206313   -3.002334   -1.366237
H      0.725314   -2.038429   -2.484903
H     -2.672617   -4.114523   -0.199955
H     -2.588750   -3.492808    1.529026
H     -3.590081   -2.662417    0.232760
H      5.479313    1.139439   -0.626386
H      4.062137    0.735071   -2.520884
H      4.527589    0.972866    1.687512
H      1.652099    0.151725   -2.192779
H      2.214890    0.418741    2.009619
H     -3.542891    2.366344   -0.768110
H     -2.530131    4.394970    0.107598
H     -0.342381   -0.530481    2.223690
H      1.170537   -1.267779    1.735964
H      0.270380   -3.206287    0.955353
H     -1.009262   -2.662222    2.017347
H     -3.534936   -0.202906   -0.557517
H     -2.504005   -0.056615   -1.991227
H      1.002518    2.335243    1.049242
H     -0.320096   -0.193226   -1.806162
H     -1.770699   -0.709305    0.804146
H     -0.618485    5.496702    1.132060
H     -0.686865    0.000000    0.000000
