57

C      5.056371    2.321555   -0.251375
C     -3.351744    2.127174   -0.996345
C     -3.512412   -1.689921    2.205491
C     -5.866474    1.665681    0.853236
C      5.059574    1.330611    0.895795
C      7.000089   -1.813862    0.362372
C      6.095833   -2.615247   -0.293850
C      6.657672   -0.531984    0.746641
C      4.842053   -2.120241   -0.562765
C      0.489578   -0.958818    0.131842
C     -0.619309   -1.179158    0.956490
C     -4.240417   -0.193187   -1.340936
C     -5.506978   -0.269274   -0.521663
C     -0.826234    0.402610   -1.258903
C      5.408250   -0.037464    0.479225
C      0.419878   -0.170130   -0.987590
C     -1.935994    0.205628   -0.468345
C      4.488446   -0.820442   -0.175627
C     -1.842923   -0.583916    0.642247
C     -3.822987    0.519384    0.877659
C      2.707587   -0.437650   -1.623259
C     -3.352317    0.692194   -0.536308
N      3.198687   -0.288302   -0.442903
N     -3.112619   -0.644756    1.308095
N     -5.239480    0.339217    0.749983
O      3.449934   -1.118686   -2.618249
O     -5.775165   -0.414933    1.723337
O      1.457814    0.092793   -1.840490
Cl     0.689577    0.000000    0.000000
H      4.584807    3.259635    0.151129
H      6.091508    2.623229   -0.525902
H      4.530075    1.934427   -1.130509
H     -4.296591    2.448548   -1.432959
H     -2.577232    2.210763   -1.803167
H     -2.989319    2.771144   -0.173169
H     -3.782254   -1.298548    3.230210
H     -2.683399   -2.405920    2.379625
H     -4.351841   -2.309277    1.791737
H     -5.154596    2.417760    1.251411
H     -6.727278    1.655705    1.537423
H     -6.259948    1.932079   -0.152852
H      5.825632    1.686099    1.612266
H      4.072333    1.389274    1.399671
H      8.013378   -2.186795    0.590802
H      6.420003   -3.606595   -0.569103
H      7.425651    0.044818    1.262446
H      4.119515   -2.744547   -1.079758
H      1.392782   -1.456822    0.440860
H     -0.528598   -1.804792    1.829294
H     -3.831600   -1.223205   -1.411634
H     -4.440178    0.191349   -2.364241
H     -5.920910   -1.276374   -0.438560
H     -6.261109    0.383708   -1.050075
H     -0.910459    1.027446   -2.133270
H     -3.547443    1.434148    1.442839
H      4.460360   -0.906138   -2.668317
H     -0.689577    0.000000    0.000000
