47

C      0.182353   -2.262893    1.106941
C     -2.687756   -2.932320   -1.264789
C      4.420208    0.617003    0.924927
C      3.534837    0.215833    1.898720
C      3.987446    0.786145   -0.373259
C      2.198873   -0.018712    1.566603
C      2.664560    0.545024   -0.658770
C     -2.543932    2.306262    0.462903
C     -1.937482    3.529904    0.247894
C      0.242202   -0.815682   -1.474436
C     -0.386673   -2.191265   -1.462423
C     -2.613622   -0.153854    0.560181
C      0.083660    2.366496   -0.230988
C     -0.437639   -0.984018    0.738169
C     -1.835069    1.151324    0.328611
C      1.739205    0.142184    0.278402
C     -0.617377    3.558498   -0.100888
C     -0.496104    1.141914   -0.022446
C     -1.713629   -1.056152   -0.097135
C      0.360230   -0.074107   -0.163506
N     -1.609218   -2.294993   -0.612626
O      0.037047    4.789352   -0.329356
Cl     0.688940    0.000000    0.000000
H      0.305039   -2.413726    2.227136
H     -0.531967   -3.102360    0.856203
H      1.209958   -2.438964    0.731149
H     -3.632128   -2.393083   -1.011564
H     -2.567184   -3.113060   -2.341529
H     -2.821015   -3.954732   -0.803315
H      5.470525    0.806755    1.159760
H      3.851025    0.072261    2.943848
H      4.691058    1.107125   -1.157835
H      1.491525   -0.330834    2.304551
H      2.349105    0.691815   -1.701456
H     -3.603851    2.327433    0.740665
H     -2.491467    4.470515    0.351269
H      1.317383   -1.041102   -1.769676
H     -0.105273   -0.171586   -2.314167
H     -0.835057   -2.288937   -2.503799
H      0.280874   -3.028845   -1.377923
H     -2.660324   -0.261540    1.646531
H     -3.619883   -0.058433    0.079230
H      1.131171    2.487851   -0.512278
H     -0.571248   -0.431492    1.713307
H     -1.695843   -0.484723   -1.103450
H      0.465457    5.183722    0.520618
H     -0.688940    0.000000    0.000000
