61

C     -5.144700    0.478822    3.369296
C      3.146756   -3.912487    1.169878
C     -5.006029    3.839997   -1.196012
C     -1.687417   -4.112786   -0.162258
C      5.164335    2.569141   -1.330018
C     -1.320351   -2.841404   -0.486893
C      4.010819    3.290140   -1.209602
C      0.527322   -4.632650    0.671388
C     -2.304806   -0.165555    1.049205
C     -2.897813    0.786578   -1.008755
C     -4.420881    0.972442    0.745139
C      4.065045    0.613717   -0.503916
C      0.843679    2.171884   -0.068942
C     -0.760917   -4.990021    0.409219
C     -1.949685    0.078901   -0.260462
C      5.202613    1.222903   -0.978269
C     -3.507972    0.265037    1.545173
C     -4.096634    1.228908   -0.545308
C      0.017477   -2.449774   -0.222846
C      2.878345    1.318428   -0.372267
C      1.631660    1.002816    0.033956
C      2.880692    2.666094   -0.734872
C      0.896393   -3.316461    0.334204
C      0.356955   -1.062758   -0.567946
C      1.041242   -0.273521    0.506885
C      7.296676    0.578780    0.001058
Cl    -1.260422   -6.641256    0.825234
F      7.629481    1.898932    0.294235
F      8.421970   -0.183447   -0.181872
F      6.609088    0.099832    1.089489
N      1.609807    3.132723   -0.526713
N     -0.803962   -0.290334   -0.914487
O      1.127847   -0.580800    1.690071
O     -4.677491    1.916078   -3.051545
O     -6.587873    1.646232   -1.534058
O     -3.881086    0.014574    2.873084
O      2.234999   -2.986479    0.615297
O      6.416832    0.542992   -1.133269
S     -5.164445    2.129404   -1.615330
H     -5.985402    0.173490    2.685615
H     -5.265831    0.186818    4.399930
H     -5.097588    1.622314    3.291249
H      4.189719   -3.574942    0.858212
H      3.062567   -4.901850    0.605928
H      2.991172   -3.993270    2.237917
H     -5.989420    4.330241   -1.389334
H     -4.780332    3.885468   -0.105383
H     -4.168262    4.291844   -1.732380
H     -2.708365   -4.406774   -0.369754
H      6.092957    3.010904   -1.698822
H     -1.993023   -2.144713   -0.946377
H      3.970943    4.340852   -1.482369
H      1.212552   -5.336024    1.117481
H     -1.603049   -0.712605    1.664939
H     -2.682428    1.023007   -2.053739
H     -5.363607    1.300770    1.131029
H      4.065632   -0.421377   -0.225173
H     -0.216909    2.200219    0.217440
H      1.078465   -1.083131   -1.402800
H      1.350635    4.118902   -0.728834
H     -0.697973    0.064235   -1.950033
