51

C     -4.115427   -1.417785    1.155174
C      2.881027   -1.678228   -1.806463
C     -2.079314    3.987545   -0.727367
C     -3.262678   -1.728695    0.025405
C      3.284767    1.794162    2.145194
C      4.259900    0.905484    1.737711
C      2.030982    1.721687    1.588170
C      3.955238   -0.022749    0.792484
C     -0.377509   -1.378601    1.720530
C      0.519162   -1.937866    0.663336
C      0.576041    1.046106   -1.523993
C     -0.187661    0.014129   -2.340632
C     -1.358548   -1.815497   -1.349385
C     -1.978090   -1.359306   -0.094488
C     -1.463965   -0.589172    1.032553
C      1.730984    0.779257    0.631968
C      2.692294   -0.116904    0.212863
C     -0.748913    0.712412    0.611775
C     -1.686062    1.689838    0.071296
C      0.491156    0.456549   -0.152892
C      0.722113   -1.006757   -0.465668
N      2.148348   -0.991828   -0.772257
N     -0.077475   -1.228286   -1.617027
O     -2.900413    1.455862   -0.174480
O     -1.251755    2.974834   -0.204761
H     -3.696398   -1.586082    2.154627
H     -5.034654   -2.035786    1.112023
H     -4.483237   -0.355380    1.154626
H      3.069345   -2.733907   -1.493936
H      3.851636   -1.174730   -1.979109
H      2.329218   -1.676130   -2.788236
H     -1.563361    4.956172   -0.555110
H     -3.062901    4.002564   -0.208846
H     -2.235383    3.902617   -1.812707
H     -3.703282   -2.310296   -0.795683
H      3.518926    2.547040    2.906942
H      5.248800    0.953779    2.168992
H      1.287790    2.422828    1.919910
H      4.727449   -0.716178    0.477439
H      0.218225   -0.712729    2.387147
H     -0.756109   -2.211628    2.330278
H      0.037325   -2.876257    0.266167
H      1.471261   -2.239377    1.150786
H      1.644495    0.923225   -1.847619
H      0.240416    2.064007   -1.652376
H      0.266259   -0.126583   -3.339122
H     -1.232957    0.312562   -2.484239
H     -1.243895   -2.919101   -1.367652
H     -2.037533   -1.569919   -2.214885
H     -2.242695   -0.232040    1.732645
H     -0.422939    1.125137    1.618892
