44

C      5.087831    0.913160    0.189524
C     -3.027554    1.576589    0.896659
C     -3.305889   -0.016472   -0.904870
C     -1.544566   -1.739868    1.523259
C     -2.745090   -0.847416    1.317660
C     -0.840075   -2.020782    0.191791
C      2.780794    1.148981   -0.739390
C      1.958306   -1.180424    0.595241
C     -0.642988    1.693975   -0.599517
C     -0.393157   -0.829104   -1.962355
C      3.665830    0.438318    0.045061
C      1.509872    0.688017   -0.843365
C      1.109916   -0.469021   -0.177823
C      3.266453   -0.707612    0.703407
C      0.426113    1.328062   -1.639403
C     -1.043717    0.456974    0.111297
C     -2.502735    0.251530    0.316746
C     -0.327462   -0.787906   -0.435322
O      4.153600   -1.420714    1.490335
O     -0.106624    0.401665   -2.514861
H      5.243837    1.127448    1.272966
H      5.256858    1.807318   -0.419758
H      5.783614    0.124707   -0.112815
H     -3.953650    1.418528    1.470597
H     -3.216537    2.225607    0.015473
H     -2.225624    2.064251    1.482695
H     -2.978711    0.551943   -1.798360
H     -4.354656    0.356358   -0.700385
H     -3.433428   -1.070327   -1.175756
H     -1.890359   -2.676994    1.969883
H     -0.833775   -1.238857    2.211236
H     -2.963776   -0.387160    2.303452
H     -3.610361   -1.485609    1.065018
H     -0.085345   -2.787933    0.425456
H     -1.627824   -2.473655   -0.470730
H      3.066377    2.061774   -1.274531
H      1.628208   -2.071624    1.104401
H     -0.137698    2.446205    0.062827
H     -1.477474    2.244462   -1.074386
H      0.414160   -1.523021   -2.336432
H     -1.337120   -1.266174   -2.324929
H      0.770964    2.215169   -2.181271
H     -0.612675    0.542759    1.158852
H      5.096134   -1.083127    1.570405
