78

C      8.248541    1.066305    0.708393
C      1.077189   -1.529592   -1.391308
C     -4.606129   -1.302332   -0.882894
C     -6.156180    1.839976   -1.101040
C     -7.531224    2.000677   -0.968000
C     -3.347889    1.441148    1.131665
C     -2.861859    0.191391    1.797109
C      5.987689    1.926871    0.242751
C      2.797520   -1.587586    1.030800
C      0.589967   -2.437105    1.581050
C     -6.155624    0.748847    0.978122
C      1.611008    0.623299   -0.364640
C      6.795868    0.704960    0.436858
C     -5.433271    1.193521   -0.100021
C      1.359799   -1.257708    1.096547
C     -3.984714    1.014706   -0.177385
C      4.852522    1.841644   -0.691662
C      3.696728   -0.502285    0.508292
C     -0.884991   -2.358502    1.358965
C     -8.162392    1.515844    0.157573
C     -1.186935    0.206872   -1.334376
C      4.848437    0.651631   -1.599419
C     -0.608893   -0.314256   -0.062680
C     -2.535388   -0.337691   -1.660478
C      5.490333   -0.548371   -0.991986
C      0.861833   -0.681255   -0.193352
C     -3.498970   -0.358345   -0.487960
C      3.087081    0.488990   -0.378504
C     -2.835665   -0.889109    0.761989
C     -1.437832   -1.411434    0.505401
O     -9.418318    1.637791    0.326383
O     -1.272044    1.606132   -1.332537
O     -2.396931   -1.542839   -2.294641
O     -3.563021   -1.978612    1.294191
O     -7.453530    0.911591    1.082663
O      6.799046   -0.169392   -0.639608
O      4.818337   -1.164320    0.000620
O      3.606460    1.778090   -0.096514
O     -1.290759   -2.724433    0.072690
O      3.480724    0.375262   -1.733547
H      8.830099    1.173349   -0.231060
H      8.340939    1.955868    1.361318
H      8.739284    0.224298    1.278895
H      0.197203   -2.158542   -1.634489
H      1.937866   -2.224353   -1.324504
H      1.329253   -0.852618   -2.260401
H     -5.589401   -1.078876   -0.457988
H     -4.768000   -1.282647   -2.002457
H     -4.374367   -2.356597   -0.553069
H     -5.661403    2.217969   -1.979520
H     -8.132411    2.493513   -1.715103
H     -2.584910    2.218600    1.001966
H     -4.131911    1.887602    1.795017
H     -3.488270   -0.078525    2.697966
H     -1.832856    0.306508    2.250512
H      6.682798    2.759517   -0.072871
H      5.611787    2.267988    1.251390
H      3.122626   -1.896982    2.069665
H      2.915929   -2.541122    0.434955
H      0.828551   -2.557511    2.678644
H      0.998306   -3.357721    1.107994
H     -5.662236    0.240031    1.789936
H      1.288129    1.325874    0.432664
H      1.247420    1.064430   -1.323690
H      6.477816    0.091131    1.327916
H      1.231954   -0.445351    1.871343
H     -3.581900    1.696331   -0.976925
H      4.832009    2.752919   -1.359210
H      4.081687    0.037794    1.426847
H     -1.482708   -2.804321    2.206293
H     -0.535171   -0.028815   -2.227666
H      5.304970    0.901089   -2.561478
H     -0.605513    0.548469    0.666046
H     -3.000396    0.369206   -2.407254
H      5.635893   -1.295377   -1.828690
H     -1.195991    1.990895   -2.228437
H     -2.988730   -2.261901   -2.033581
H     -3.404868   -1.972503    2.280988
