78

C      8.038464    0.523009   -1.132117
C      0.910076    1.790154    0.242490
C     -3.773225    1.397870   -0.664876
C     -6.291991   -0.689116   -1.898495
C     -7.412264   -0.114489   -2.450186
C     -4.744104   -1.288773    1.335435
C     -3.259451   -1.275079    1.742231
C      6.312756   -1.292319   -1.334263
C      2.772169    0.118724    2.074723
C      0.525983    0.551968    2.896150
C     -6.541593    0.767020   -0.045694
C      1.790734   -0.318909   -0.584766
C      7.383013   -0.661285   -0.452049
C     -5.831103   -0.254571   -0.673663
C      1.309962   -0.111959    1.821841
C     -4.647327   -0.880683   -0.097204
C      5.110226   -0.421297   -1.482672
C      3.519254   -0.847287    1.144347
C     -0.909478    0.758941    2.573922
C     -8.063809    0.880436   -1.788339
C     -1.094887   -0.042109   -1.118517
C      5.164569    0.640077   -0.407329
C     -0.545087   -0.213938    0.272096
C     -2.466604   -0.646684   -1.170402
C      5.635135    0.068482    0.885103
C      0.875682    0.282970    0.424109
C     -3.395855    0.006843   -0.217275
C      3.239998   -0.300972   -0.252935
C     -2.867157    0.073605    1.161228
C     -1.420155    0.376341    1.317439
O     -9.086672    1.379089   -2.330921
O     -0.334145   -0.772276   -2.031741
O     -2.913668   -0.558948   -2.487829
O     -3.640363    1.015634    1.880658
O     -7.601259    1.268636   -0.630104
O      6.942579   -0.389867    0.817946
O      4.852922   -0.918671    1.411677
O      3.910641   -1.063425   -1.206939
O     -1.181610    1.760472    1.667691
O      3.811954    0.970620   -0.287859
H      8.120034    1.403555   -0.432873
H      9.103699    0.303775   -1.414981
H      7.538907    0.797658   -2.083567
H      0.017167    2.177398   -0.291039
H      1.782122    2.119024   -0.373225
H      1.050747    2.310799    1.229049
H     -4.598963    1.402818   -1.402270
H     -4.083262    1.989901    0.226571
H     -2.870265    1.918650   -1.044748
H     -5.798591   -1.484226   -2.461561
H     -7.752543   -0.486094   -3.430020
H     -5.166557   -2.309849    1.467160
H     -5.220805   -0.532664    1.986439
H     -2.708228   -2.107562    1.313594
H     -3.152623   -1.304315    2.837615
H      6.789154   -1.364725   -2.356011
H      6.112836   -2.315776   -1.009786
H      3.096019    1.134681    1.768835
H      2.983143   -0.122444    3.113569
H      0.967635    1.557598    3.154484
H      0.643196   -0.052468    3.834533
H     -6.192468    1.117700    0.915721
H      1.677910    0.287138   -1.531808
H      1.520727   -1.399974   -0.769948
H      8.179182   -1.457095   -0.353812
H      1.127970   -1.216209    1.894432
H     -4.453260   -1.832231   -0.678522
H      5.002639    0.044208   -2.482133
H      3.086413   -1.875925    1.268092
H     -1.583593    0.694489    3.478297
H     -1.135133    0.983548   -1.472094
H      5.735381    1.522452   -0.675415
H     -0.497339   -1.325234    0.453340
H     -2.387709   -1.729376   -0.944154
H      5.648271    0.914822    1.633024
H     -0.587301   -1.734390   -1.877436
H     -2.987567   -1.423586   -2.932476
H     -3.091254    1.825702    2.059988
