76

C     -0.092099   -3.584660    0.850145
C     -0.744260   -2.775789   -1.430114
C      3.824440   -3.028469    1.455600
C     -6.039517   -1.418519   -0.447781
C      5.862978    1.389248    1.214481
C      5.437578    2.585814   -0.834462
C     -3.851082    2.484797    0.636630
C     -3.350451    2.296454   -1.737401
C      0.206201    0.847967   -1.622414
C     -6.954991    1.760747   -0.073187
C      2.343811    1.799495   -0.011750
C      2.497590   -1.056484    1.414417
C      1.461976   -1.063831    0.315597
C      4.699902   -1.064914    0.062469
C      3.500275    1.716204    0.538689
C      0.942767    2.014936    0.467021
C      5.043995    0.173945   -0.691794
C     -0.998822   -2.637643    0.047741
C      3.819737   -1.613531    0.838689
C     -4.767529   -0.626260   -0.337375
C      0.165614   -0.415959    0.593399
C     -1.070682   -1.256185    0.566695
C     -2.329931   -0.582200    0.161722
C     -3.549356   -1.375943    0.060405
C     -4.806546    0.649637   -0.593835
C     -2.408711    0.706834   -0.092546
C      4.901141    1.482020    0.016478
C     -3.599204    1.461812   -0.501014
C      0.027597    0.904056   -0.160433
O     -3.712392   -2.586058    0.264368
O     -6.050851    1.189743   -0.958377
O     -1.254665    1.450763    0.041208
H      0.325937   -3.096996    1.738437
H     -0.710795   -4.431909    1.316435
H      0.609109   -4.149969    0.217694
H      0.113668   -3.486244   -1.538677
H     -0.583642   -1.862033   -1.981208
H     -1.585452   -3.286027   -1.989117
H      2.750361   -3.436356    1.376287
H      3.939865   -2.827742    2.570114
H      4.426153   -3.814770    1.191029
H     -6.655270   -0.988934   -1.255403
H     -6.595928   -1.340454    0.516326
H     -5.796084   -2.462769   -0.710540
H      5.310705    1.045953    2.116207
H      6.745619    0.812261    0.952247
H      6.167145    2.428366    1.435556
H      5.971765    2.205247   -1.753568
H      6.196158    3.219021   -0.325042
H      4.610293    3.218263   -1.232220
H     -2.906368    2.765378    1.139615
H     -4.509999    2.034084    1.416122
H     -4.319400    3.396082    0.270474
H     -3.139121    1.708827   -2.629536
H     -4.207514    2.992436   -1.834696
H     -2.454077    2.918237   -1.529004
H      0.290506    1.913955   -1.999634
H     -0.754987    0.501657   -2.063854
H      1.024080    0.322273   -2.066564
H     -7.838493    2.083737   -0.699385
H     -7.352775    0.953121    0.588108
H     -6.638340    2.644759    0.468673
H      2.128843    1.753671   -1.155825
H      2.097807   -1.804992    2.203683
H      2.551564   -0.204462    2.051945
H      1.475421   -2.078000   -0.099973
H      1.959426   -0.486406   -0.536231
H      5.677187   -1.667357   -0.265903
H      3.747048    1.824302    1.652480
H      0.662536    2.020221    1.480561
H      0.554644    3.010596    0.063066
H      6.105252    0.152585   -1.021352
H      4.498401    0.294322   -1.652436
H     -1.971951   -3.117450    0.178847
H      0.263753   -0.031413    1.660963
H     -1.337566   -1.473098    1.682028
