59

C     -3.937998    1.986945    1.919236
C     -4.085180    1.289706   -0.424869
C      1.389025    2.628959   -0.744066
C     -1.706446   -3.348093   -0.117075
C     -3.174844   -1.116522   -3.074566
C      4.296799   -1.021332   -1.269385
C      1.734811   -1.849153   -0.565718
C      0.587186   -2.724625   -0.632117
C      0.305826    2.015732    1.517497
C      2.797033    2.343289    1.086673
C     -1.169549    1.865509    1.476001
C      3.551698    1.309568    0.211672
C      2.784491   -2.176527    0.469552
C     -0.680522   -1.131912    0.763780
C     -3.418297    1.023500    0.888909
C      1.304274    2.289524    0.752895
C     -0.533242   -2.390023   -0.013143
C     -2.111908   -0.454953   -2.279883
C     -1.914214    1.020867    0.804447
C     -1.221903    0.016544   -0.030765
C      3.591505    0.028910    1.003087
C      3.898276   -1.190086    0.156946
O     -1.167420    0.194986   -2.765636
O     -2.179265   -0.571582   -0.895938
O      4.740832   -0.717902    1.116319
H     -3.495605    1.741253    2.888287
H     -5.048627    1.852765    1.977079
H     -3.708662    3.010059    1.609941
H     -4.455659    0.356116   -0.844105
H     -3.412372    1.837863   -1.131509
H     -4.951177    1.988798   -0.251673
H      2.406358    3.070471   -0.991274
H      1.337779    1.727244   -1.372916
H      0.710126    3.356893   -1.140519
H     -2.608649   -2.706972   -0.041705
H     -1.679786   -4.095994    0.690855
H     -1.737660   -3.812669   -1.127329
H     -3.452283   -2.072034   -2.575347
H     -4.046534   -0.435353   -3.089994
H     -2.812389   -1.381191   -4.092497
H      5.296335   -0.526543   -1.308019
H      4.334251   -2.040628   -1.725420
H      3.629874   -0.427210   -1.891279
H      1.386991   -0.845674   -0.308355
H      2.262685   -1.895184   -1.543849
H      0.671979   -3.664159   -1.204639
H      0.428438    1.840952    2.687085
H      3.187092    2.178330    2.047064
H      3.215878    3.334271    0.679839
H     -1.821458    2.533617    2.111773
H      3.148178    1.208185   -0.782396
H      4.600119    1.651579    0.100684
H      2.361613   -2.007783    1.459303
H      3.136967   -3.224793    0.394034
H      0.222696   -0.963161    1.329728
H     -1.474442   -1.349144    1.544155
H     -3.698433   -0.030548    1.191458
H     -0.534907    0.538178   -0.663708
H      2.920316   -0.068867    1.878445
