40

C      4.198306   -0.057381   -1.153020
C      4.815795    0.013488    1.343979
C     -6.054190    0.381979    0.905093
C      0.841611    0.809536    0.740551
C      1.966091   -1.660681   -0.518867
C      2.862276   -1.200744    0.540100
C     -3.624584    0.412940    0.132741
C     -2.253187   -0.006215    0.593127
C      0.543269   -1.304970   -0.447409
C     -1.584205    0.967463   -1.600290
C      3.916787   -0.445260    0.256788
C     -4.627837    0.056466    1.157019
C     -1.266031    0.374288   -0.475772
C     -0.385390    1.184382   -2.395256
C      0.192080    0.161274   -0.464071
O     -4.264816   -0.491623    2.175954
O     -0.324297    1.738869   -3.551019
O      0.652645    0.682128   -1.667396
H      4.325620   -0.977585   -1.747247
H      3.382371    0.555157   -1.562032
H      5.111802    0.588050   -1.202997
H      5.587635   -0.759361    1.493068
H      4.270804    0.132848    2.294906
H      5.254082    1.000320    1.080723
H     -6.221032    0.428857   -0.179933
H     -6.685182   -0.391561    1.407110
H     -6.261681    1.352405    1.411117
H      1.737898    1.387435    0.521884
H      0.924765    0.069319    1.555408
H      0.072846    1.543991    1.138897
H      2.344891   -1.389295   -1.544810
H      2.021372   -2.792285   -0.527901
H      2.729815   -1.448877    1.597584
H     -3.605860    1.530585   -0.011130
H     -3.837160   -0.071056   -0.850160
H     -2.268423   -1.111398    0.702660
H     -1.982316    0.408506    1.566278
H      0.015790   -1.836411   -1.285432
H      0.079358   -1.752495    0.479151
H     -2.601720    1.262766   -1.909394
