55

C      1.420597   -2.053837    5.315895
C     -2.848747    3.812156   -1.630475
C     -3.538961    3.433323   -0.505756
C     -1.860190    2.998085   -2.170225
C     -3.242868    2.230190    0.092916
C     -1.593906    1.794499   -1.532114
C     -3.606351   -0.673455   -2.296283
C     -2.024495   -2.396723   -2.745307
C     -4.290098   -1.086976   -3.447600
C     -2.675475   -2.822272   -3.880597
C      4.726128    1.825130   -0.632908
C      3.213854    2.761078    0.959702
C      4.616019    0.601417   -0.038322
C      3.108112    1.517568    1.561849
C     -0.666826    0.175711    1.029607
C      1.363346   -2.468761    3.899167
C     -2.263713    1.396187   -0.419784
C     -2.464483   -1.342950   -1.952978
C     -3.828947   -2.128909   -4.204680
C      4.024460    2.901606   -0.131511
C      3.792658    0.477782    1.067907
C     -1.934995    0.105312    0.191188
C     -1.681489   -0.980775   -0.746651
C      0.935524   -1.629545    1.693588
Cl    -4.716582   -2.635453   -5.644605
Cl     4.175933    4.509945   -0.846114
N      2.108451   -3.484612    3.547084
N      0.567121   -1.870289    2.870633
N     -0.599681   -1.619063   -0.357096
N      2.253685   -1.954518    1.281850
N     -0.058038   -1.100925    0.788103
O      4.915018   -1.919521    1.676038
O      3.463453   -0.820929    3.255063
S      3.681379   -1.135273    1.737991
H      2.502140   -1.902672    5.580473
H      0.809972   -1.146276    5.519592
H      1.090942   -2.849791    6.014762
H     -3.060860    4.781777   -2.135782
H     -4.287186    4.101567   -0.137182
H     -1.366244    3.344441   -3.048562
H     -3.815883    1.956490    0.962302
H     -0.816074    1.147152   -1.924767
H     -3.989652    0.138864   -1.732989
H     -1.101955   -2.909030   -2.442176
H     -5.194536   -0.587166   -3.762860
H     -2.285135   -3.651789   -4.470444
H      5.358482    1.964541   -1.501207
H      2.669967    3.614114    1.344707
H      5.167682   -0.253461   -0.429252
H      2.451497    1.452372    2.423160
H     -0.045722    1.021864    0.759269
H     -0.890132    0.261190    2.113342
H     -2.747829   -0.170269    0.903415
H      2.730945   -4.017735    4.174990
H      2.349687   -2.711385    0.502377
