44

C     -2.453630    2.709742    0.031619
C     -1.212487    1.955506    0.426553
C      4.672497    0.434175    0.715647
C      4.628985   -0.078143   -0.569479
C     -2.727592   -1.487694    0.068322
C      3.478774    0.602583    1.379521
C      3.451609   -0.410306   -1.173155
C     -0.972047   -0.393096   -2.503069
C     -2.473341   -0.079495    0.468831
C     -1.448941    0.691998   -1.615136
C     -1.464771   -2.322904    0.182927
C      2.277957    0.284424    0.816026
C      2.264603   -0.220205   -0.455977
C      0.348418   -0.933246   -2.092426
C      0.871936    0.349365    1.267872
C      0.841223   -0.517683    2.503751
C      0.345823   -1.796851    2.009024
C     -1.211463    0.530684   -0.158085
C     -0.006850   -0.245727    0.249879
N     -0.410358   -1.542984    0.838075
N      0.902428   -0.487943   -0.857316
O      0.988163   -1.762866   -2.792670
O      1.173914   -0.159820    3.640694
O      0.579047   -2.906854    2.564863
H     -2.771000    2.611679   -0.998246
H     -3.310966    2.447826    0.696810
H     -2.214984    3.795534    0.246967
H     -0.277112    2.489364    0.200638
H     -1.311865    1.883499    1.552994
H      5.633151    0.674419    1.130363
H      5.569275   -0.214020   -1.100433
H     -3.210668   -1.542771   -0.924555
H     -3.522377   -1.862682    0.781438
H      3.520028    1.001481    2.378657
H      3.443442   -0.803008   -2.163326
H     -0.783960    0.057575   -3.526125
H     -1.681775   -1.209262   -2.716655
H     -3.315131    0.534646    0.029262
H     -2.440596    0.084956    1.554171
H     -0.953545    1.644964   -1.952154
H     -2.565294    0.764281   -1.790208
H     -1.713026   -3.193422    0.811173
H     -1.130555   -2.727646   -0.794595
H      0.593060    1.349924    1.637531
