40

C     -4.117128    0.376257   -0.957599
C     -4.301419    2.320799    0.674712
C      4.499393    1.861545    0.763311
C     -0.249360   -2.010375   -1.239467
C     -1.877600   -0.639224    0.619900
C     -2.606606    0.600630    0.968320
C      2.519073    1.101136   -0.694088
C      2.545515   -0.358167   -1.002521
C     -0.398164   -0.191393    0.392994
C      2.383821   -2.203795    0.621258
C     -3.633773    1.065489    0.243884
C      3.071244    1.413764    0.651283
C      1.784333   -1.252886   -0.137689
C      1.404166   -2.946293    1.380872
C      0.348335   -1.421423    0.044915
O      2.394762    1.313623    1.642935
O      1.614333   -3.886734    2.174602
O      0.188547   -2.419546    1.063571
H     -4.117547   -0.727530   -0.870835
H     -3.536622    0.649444   -1.865394
H     -5.167062    0.672010   -1.157680
H     -4.257782    2.436444    1.770015
H     -5.315148    2.426643    0.271362
H     -3.693118    3.162250    0.246359
H      4.605824    2.941445    0.855388
H      4.972010    1.307040    1.605389
H      5.077332    1.549280   -0.145861
H      0.545885   -2.404957   -1.873607
H     -1.001470   -2.745668   -0.958337
H     -0.759804   -1.199541   -1.783742
H     -1.866858   -1.356553    1.445620
H     -2.186130   -1.080428   -0.329259
H     -2.270987    1.131127    1.852275
H      3.160340    1.669356   -1.459012
H      1.523512    1.529812   -0.845411
H      2.179082   -0.431918   -2.084377
H      3.613286   -0.726888   -1.090638
H     -0.455939    0.540267   -0.443350
H     -0.069127    0.320735    1.294958
H      3.450852   -2.385775    0.656992
