92

C      7.836433    3.634692    2.877580
C     -9.689284    1.046220   -0.569735
C      8.637759    1.754392    0.884657
C     -8.076775    3.414902   -0.747476
C      7.503135    0.512912   -1.612400
C     -4.946995    2.608157    0.904094
C      7.370491    3.782472    1.444774
C     -9.228666    1.767112    0.677588
C      4.611193   -2.865991   -0.144733
C     -4.624210   -2.669909   -0.194864
C      5.028565   -3.819482   -0.948959
C     -5.100998   -3.384781    0.791293
C      1.234302   -2.457972   -2.877583
C     -1.056284   -2.073717    2.333072
C      3.473893   -3.566687   -2.854513
C     -3.403597   -2.947273    2.547997
C      7.296051    2.369860    0.834199
C     -7.891430    2.442413    0.371973
C      6.273341    1.275189   -1.228075
C     -5.526036    1.840000   -0.266500
C      2.620619   -2.718288   -2.354562
C     -2.489329   -2.288376    1.879432
C      3.860434   -1.630162   -0.430509
C     -3.688199   -1.540777   -0.219367
C      2.657320   -1.776541   -1.220971
C     -2.484331   -1.573449    0.592638
C      6.596970    2.496906   -0.466153
C     -6.925597    1.340874    0.058163
C      5.273697    0.399495   -0.546845
C     -4.723273    0.656740   -0.641989
C      0.951223   -2.076396    0.807545
C     -0.745807   -2.043850   -1.363770
C      0.535315   -2.706361   -1.570383
C     -0.406387   -2.520604    1.071892
N      1.429950   -2.146654   -0.528283
N     -1.250827   -2.014479   -0.035178
O      5.463222    3.350496   -0.350996
O     -6.891329    0.465407    1.147391
O      4.813406    0.737730    0.569129
O     -4.231991    0.603416   -1.792382
O      1.652887   -1.647935    1.757580
O     -1.392120   -1.514084   -2.311258
O      4.807408   -3.830500   -2.355553
O     -4.760097   -3.176844    2.159214
O      4.824035   -0.779366   -1.089848
O     -4.483314   -0.404502    0.214166
S      0.390992   -4.475476   -1.161754
S     -0.449710   -4.346206    0.840876
H      7.274885    4.354602    3.528005
H      8.906767    3.904138    2.937279
H      7.657223    2.626014    3.277358
H    -10.789912    1.196099   -0.628246
H     -9.528648   -0.052342   -0.472654
H     -9.158354    1.373732   -1.474993
H      9.235940    1.769331   -0.033253
H      8.646364    0.688771    1.265532
H      9.289181    2.271566    1.667800
H     -7.923030    4.464026   -0.392503
H     -9.136396    3.381755   -1.138667
H     -7.442018    3.256071   -1.621011
H      7.273226   -0.187411   -2.486990
H      8.274670    1.180564   -2.044311
H      7.969052   -0.072413   -0.805797
H     -5.238703    2.202014    1.877460
H     -5.324106    3.656524    0.816727
H     -3.853752    2.658176    0.866528
H      6.352744    4.191388    1.428919
H      8.088845    4.376667    0.835946
H     -9.001926    0.994298    1.450899
H     -9.975454    2.459440    1.082316
H      4.872495   -3.023722    0.939172
H     -5.012289   -2.991549   -1.162871
H      5.563335   -4.615817   -0.484122
H     -5.801382   -4.192443    0.589679
H      0.943893   -3.147101   -3.668989
H      1.087479   -1.386057   -3.119268
H     -0.803982   -2.706011    3.182404
H     -0.844300   -1.020496    2.490642
H      3.186006   -4.125614   -3.705900
H     -3.114171   -3.357971    3.481179
H      6.637067    1.750528    1.523858
H     -7.585617    2.957157    1.311616
H      5.815242    1.624866   -2.209137
H     -5.603305    2.501896   -1.146546
H      3.584612   -1.111748    0.537654
H     -3.389811   -1.288155   -1.274482
H      2.405130   -0.715893   -1.662730
H     -2.257711   -0.486351    0.876625
H      7.322574    3.080649   -1.137063
H     -7.287486    0.766720   -0.800215
H      5.283946    3.713712   -1.275538
H     -7.274378   -0.422330    0.923672
