78

C     -6.864138    2.956732    0.457111
C     -7.447024    1.132402   -1.235425
C      5.676116    3.088089    2.478731
C      6.398024    2.472293    0.080754
C     -1.058519   -4.053198   -1.367842
C      0.259338   -4.559848    1.910487
C     -2.701501    0.375915   -1.719657
C      4.451291   -0.621138   -0.801274
C     -4.261061    1.552597    0.846426
C      3.640485    2.350548   -0.632221
C     -5.319286    1.104627   -0.077285
C      4.058468    2.687721    0.726046
C     -2.959099    1.888960    0.295097
C      2.665068    1.163707   -0.696385
C     -0.499151   -1.681487   -1.358028
C      2.293883   -3.420714    1.241444
C     -6.477104    1.712485   -0.262880
C      5.318435    2.736140    1.061667
C     -0.881277   -2.768783   -0.694263
C      1.004822   -3.357177    1.474221
C     -2.127053    0.944346   -0.458011
C      3.199252   -0.085090   -0.146980
C     -0.102964   -0.530743   -0.499241
C      2.974207   -2.218774    0.820725
C      0.291297   -2.086937    1.305479
C     -1.096472   -2.486427    0.753695
C      0.921264   -1.015575    0.516401
C     -1.971976   -1.270974    0.750052
C     -1.304952   -0.035801    0.327512
C      2.254346   -1.259760   -0.038124
O      4.181188   -2.055602    1.225557
O     -3.107709   -1.451118    1.090761
O     -0.736392    0.665513    1.402857
O      2.147122   -1.872823   -1.326113
H     -7.115914    2.797774    1.507028
H     -6.036478    3.716756    0.345827
H     -7.729287    3.416896   -0.052974
H     -7.907795    1.884865   -1.884680
H     -8.200704    0.568642   -0.630881
H     -6.972280    0.377119   -1.899675
H      5.487854    2.236332    3.163701
H      5.032212    3.935599    2.764383
H      6.742937    3.380353    2.567996
H      6.214285    3.117052   -0.823551
H      6.461903    1.445439   -0.271562
H      7.386809    2.753784    0.534046
H     -1.389337   -3.954925   -2.422429
H     -0.048518   -4.553302   -1.414944
H     -1.723739   -4.730800   -0.793393
H     -0.489624   -4.309989    2.717330
H      0.957527   -5.272358    2.456196
H     -0.178020   -5.156290    1.112301
H     -3.479478    0.981589   -2.183516
H     -3.061716   -0.652626   -1.512387
H     -1.912336    0.254923   -2.493745
H      4.750538   -0.026869   -1.690804
H      5.340008   -0.628587   -0.144311
H      4.309006   -1.662345   -1.220055
H     -4.674561    2.526520    1.280345
H     -4.293654    0.891469    1.741034
H      3.034910    3.221287   -1.017486
H      4.458964    2.231397   -1.356178
H     -5.120629    0.201632   -0.640133
H      3.288155    2.899067    1.456188
H     -2.322341    2.273167    1.150531
H     -3.081020    2.826438   -0.334387
H      1.834897    1.556474   -0.022500
H      2.325937    1.141076   -1.747359
H     -0.478688   -1.647419   -2.448354
H      2.884136   -4.328858    1.348502
H     -1.289172    1.627549   -0.864933
H      3.508913    0.119614    0.925279
H      0.189037    0.339725   -1.076156
H      0.056267   -1.763040    2.372627
H     -1.525088   -3.318910    1.295464
H      1.025115   -0.124092    1.221269
H     -1.247940    0.567172    2.226368
H      2.169978   -1.159407   -2.025407
