48

C      4.530308    0.868552   -1.089666
C      4.823865   -0.125929   -0.001490
C      3.505838   -0.481634    0.676047
C      2.578227   -1.081783   -0.356697
C     -4.245492   -1.611822    0.134101
C     -3.874043   -1.265640   -1.293695
C     -0.278681    2.984305    0.138543
C      1.257108   -1.460198    0.267665
C     -3.072361   -1.503644    1.068956
C     -1.532303    2.179214   -0.112356
C     -3.154536    0.065430   -1.207844
C      0.873306    2.005031    0.066311
C     -0.792319   -0.752711    1.481732
C      0.527497   -0.278497    0.874048
C     -1.791651   -1.108931    0.403982
C     -0.961308    0.888395   -0.660701
N     -1.875934   -0.192987   -0.637438
N      0.254731    0.763596    0.011754
H      5.501569    1.397869   -1.298625
H      4.124168    0.416937   -1.996131
H      3.884310    1.655874   -0.637371
H      5.544009    0.277727    0.737193
H      5.203786   -1.072061   -0.438004
H      3.085400    0.369745    1.215797
H      3.779494   -1.278433    1.428310
H      2.431732   -0.390453   -1.204142
H      3.036380   -2.051709   -0.691301
H     -4.672945   -2.642817    0.100683
H     -5.076051   -0.936344    0.421419
H     -4.821936   -1.190083   -1.860375
H     -3.190318   -2.034423   -1.660339
H     -0.310907    3.521443    1.116468
H     -0.168543    3.713939   -0.688078
H      1.506175   -2.215618    1.066731
H      0.613108   -2.010137   -0.447147
H     -3.353286   -0.771463    1.855601
H     -2.984714   -2.483540    1.587310
H     -2.066458    1.943231    0.827328
H     -2.199115    2.676744   -0.853424
H     -3.025792    0.520875   -2.196480
H     -3.761693    0.729016   -0.538388
H      1.438582    2.099838    1.026114
H      1.568307    2.248252   -0.765841
H     -0.615618   -1.616435    2.164142
H     -1.201170    0.109848    2.043223
H      1.146418    0.073601    1.727567
H     -1.382345   -2.074686   -0.034317
H     -0.804801    1.122514   -1.771177
