46

C      0.648778   -2.411264    2.253555
C     -3.074216   -0.346546   -1.737748
C     -3.591536    0.003795    0.650508
C      4.869030    0.093743   -0.095739
C      2.002122   -0.697248    1.310813
C      0.643895   -1.996826   -0.256817
C      1.679537    1.315819   -0.092966
C     -2.013561    1.586652   -0.501480
C      0.218331    3.131240   -0.626044
C      1.130976   -1.653026    1.069157
C      0.522115    1.599988   -0.502956
C      2.574458    0.147483    0.233621
C     -0.733418    0.940742   -0.955641
C     -0.648401   -1.465668   -0.728902
C     -2.565175    0.178213   -0.434603
C     -1.163201   -0.213022   -0.088822
O      1.242523    3.925152   -0.274849
O     -1.695913   -2.415252   -0.607721
O     -0.812673    0.005525    1.220051
O      3.833579    0.549719    0.710875
H      1.346368   -3.273349    2.392825
H      0.629763   -1.795669    3.174757
H     -0.396331   -2.775831    2.104175
H     -3.843954    0.350674   -2.158459
H     -3.597322   -1.314692   -1.544702
H     -2.317898   -0.538566   -2.496482
H     -3.930652   -1.036619    0.661109
H     -4.486884    0.619256    0.344657
H     -3.283632    0.380674    1.626236
H      5.841202    0.407519    0.277635
H      4.719083    0.560496   -1.111911
H      4.802604   -1.008372   -0.286489
H      2.316415   -0.507959    2.318360
H      1.477129   -1.836797   -1.014053
H      0.533738   -3.137819   -0.353289
H      2.319100    2.252755    0.121553
H     -2.028385    1.997797    0.533366
H     -2.556711    2.174177   -1.250135
H     -0.653688    3.363832    0.014333
H     -0.058157    3.345003   -1.680593
H      2.848433   -0.439004   -0.689650
H     -0.819247    0.769363   -2.047765
H     -0.555618   -1.336780   -1.851493
H      1.312539    4.127351    0.703887
H     -1.279605   -3.235654   -0.210767
H     -1.405541   -0.391004    1.878606
