40

C     -4.597999   -0.770388   -1.274560
C     -5.347955    0.118279   -0.332702
C     -3.193178   -1.018809   -0.811928
C     -4.555390    1.400885   -0.193064
C     -1.372706   -0.245358    0.618564
C      4.194690    1.647020    0.966805
C      5.605909    0.224185   -0.925916
C      0.675626   -1.706636    0.920093
C      2.667625   -1.848487   -0.474957
C     -2.452997    0.203481   -0.355380
C     -0.402028   -1.181428    0.061404
C      3.665789    0.460510    0.482648
C      6.106839    1.420044   -0.416496
C      5.414278    2.128654    0.518649
C      4.388235   -0.238358   -0.466440
C      2.450473   -0.014553    0.934829
Br     7.795094    1.987049   -1.105655
Cl     6.067727    3.632781    1.140607
N     -3.298678    1.104573    0.406770
N      3.838392   -1.380081   -0.903463
N      1.943724   -1.161295    0.466720
O     -0.436519   -1.559663   -1.090744
O      1.806969    0.651358    1.809425
H     -4.545869   -0.317432   -2.288223
H     -5.109715   -1.750481   -1.347292
H     -5.448898   -0.393583    0.624879
H     -6.350266    0.367128   -0.775748
H     -2.644887   -1.423227   -1.715136
H     -3.170242   -1.811821   -0.068270
H     -4.485024    1.916047   -1.165966
H     -5.094027    2.084990    0.506516
H     -1.882896   -0.725051    1.503420
H     -0.803790    0.662192    0.972365
H      3.640575    2.198430    1.703779
H      6.146633   -0.345833   -1.668853
H      0.534862   -1.412983    1.990173
H      0.722018   -2.823581    0.877852
H      2.224718   -2.781899   -0.840539
H     -1.966486    0.756234   -1.161299
H     -2.730625    1.947108    0.629019
