74

C      7.491282   -0.017757    2.306327
C     -6.116800   -2.281094   -1.012544
C     -7.217416   -1.145153    0.809658
C     -5.656001    1.210025    3.354705
C      8.491925   -0.902379    1.655391
C      7.939607   -1.784578    0.593263
C      7.386747   -1.123307   -0.593833
C      6.255834   -0.179825   -0.434251
C      5.876649    0.277496   -1.864731
C      4.749263    1.241349   -1.864742
C      3.466254    0.659601   -1.225092
C      3.042906   -0.532740   -1.997666
C      1.870514   -1.241764   -1.477658
C      0.551867   -0.652852   -1.364485
C     -4.603580   -0.126523    1.531265
C     -6.164248    1.477888   -0.198104
C     -3.967493    2.349951    0.428003
C     -2.101040    0.744103    0.354918
C     -6.628109   -0.955766   -0.573623
C     -5.181752    0.980730    1.988964
C     -5.334249    2.067446    0.951044
C     -5.626921    0.157670   -0.645341
C     -1.229621    0.785845   -0.623563
C     -4.341908   -0.117899    0.046655
C      0.258400    0.495738   -0.484504
C     -1.902943    1.149476   -1.854981
C     -3.427437    1.090226   -0.207564
O      0.514012    0.185875    0.853706
O     -1.333268    1.275800   -2.991259
O     -3.244448    1.326573   -1.560590
H      6.425369   -0.319843    2.139047
H      7.661847   -0.111823    3.441060
H      7.685749    1.031539    2.098377
H     -5.950849   -2.975914   -0.137658
H     -5.187459   -2.266305   -1.588526
H     -6.870669   -2.834672   -1.643862
H     -8.079496   -1.863228    0.661134
H     -6.545526   -1.641806    1.510052
H     -7.695406   -0.224200    1.199388
H     -6.011420    0.280240    3.845539
H     -6.465779    1.967404    3.314752
H     -4.824923    1.684202    3.951490
H      8.998255   -1.553034    2.443553
H      9.306456   -0.243568    1.256883
H      7.149513   -2.479098    1.011080
H      8.769220   -2.474004    0.226593
H      8.198310   -0.542096   -1.140181
H      7.070545   -1.872495   -1.381490
H      5.348180   -0.609030    0.016257
H      6.585436    0.745564    0.109354
H      5.705708   -0.621158   -2.450035
H      6.821862    0.764333   -2.226636
H      4.996185    2.156540   -1.306079
H      4.463770    1.467073   -2.905470
H      3.665315    0.487473   -0.163457
H      2.760547    1.518448   -1.307367
H      3.900934   -1.293863   -2.061864
H      2.930377   -0.267425   -3.102218
H      2.115161   -1.699220   -0.433649
H      1.726394   -2.210254   -2.107889
H      0.229772   -0.360622   -2.430785
H     -0.200547   -1.477027   -1.131187
H     -4.331153   -0.977368    2.142463
H     -7.197670    1.467718    0.152820
H     -6.115212    2.268395   -1.004199
H     -3.329991    2.637890    1.309877
H     -3.918009    3.210633   -0.265216
H     -1.858784    0.493509    1.395893
H     -7.512737   -0.713773   -1.235212
H     -5.867376    2.936271    1.339353
H     -5.381810    0.270636   -1.744502
H     -3.786712   -0.984985   -0.289388
H      0.751871    1.445398   -0.684793
H      0.046723   -0.630614    1.145681
