40

C     -3.689504   -1.303044   -1.668186
C     -4.440316   -1.619258   -0.381709
C     -2.428367   -0.570664   -1.257061
C     -5.085478   -0.298296    0.053291
C     -1.936514    1.608702   -0.269308
C      4.099861   -1.612264   -0.238183
C      5.703013    0.633438   -0.370626
C      0.337840    1.155270    0.957292
C      2.536695    2.042833    0.536674
C     -2.751025    0.333697   -0.098484
C     -0.476410    1.343412   -0.299710
C      3.548188   -0.383396    0.031056
C      6.218454   -0.613752   -0.633112
C      5.421645   -1.719860   -0.566016
C      4.361091    0.729420   -0.039101
C      2.215198   -0.257325    0.360443
Br     8.082311   -0.714005   -1.088954
Cl     6.143948   -3.284609   -0.917554
N     -4.141144    0.750573   -0.142660
N      3.824424    1.945922    0.221432
N      1.727649    0.962630    0.609645
O      0.143885    1.262529   -1.357163
O      1.489132   -1.281129    0.419192
H     -3.460619   -2.219048   -2.249463
H     -4.305553   -0.651715   -2.312537
H     -5.200889   -2.408587   -0.552745
H     -3.765813   -1.957724    0.422540
H     -1.754633   -1.389041   -0.850707
H     -1.905381   -0.074728   -2.081701
H     -5.518702   -0.367319    1.054413
H     -5.944801   -0.170636   -0.668859
H     -2.194128    2.055997   -1.271196
H     -2.220829    2.320059    0.544931
H      3.494845   -2.513300   -0.194626
H      6.307064    1.528655   -0.413769
H      0.192855    1.973235    1.661013
H      0.000313    0.180040    1.415313
H      2.160651    3.047038    0.737620
H     -2.484055   -0.093189    0.880957
H     -4.304900    1.629438    0.374135
