48

C      6.050831   -0.068893    0.602869
C      4.628959    0.263991    0.183033
C      3.865403   -1.028702    0.098352
C      2.453617   -0.803962   -0.315694
C     -3.924664   -2.238606   -0.256396
C     -4.355069   -0.796960   -0.372188
C     -1.171691    3.251174    0.550280
C      1.652568    0.076232    0.615224
C     -2.440098   -2.410244   -0.464391
C     -1.612079    2.412416   -0.660915
C     -3.414666   -0.089558   -1.324869
C     -0.197325    2.250234    1.181750
C     -0.254756   -1.265393   -0.006030
C      0.267999    0.179209    0.039779
C     -1.756650   -1.169882    0.039222
C     -1.864972    1.121817    0.053722
N     -2.081236   -0.001758   -0.785993
N     -0.642216    0.947929    0.817496
H      6.676955   -0.015200   -0.303143
H      6.411033    0.709794    1.302619
H      6.086921   -1.061766    1.065911
H      4.573929    0.791570   -0.771866
H      4.166303    0.929271    0.967091
H      4.343352   -1.654070   -0.689245
H      3.896337   -1.570142    1.067598
H      2.421903   -0.367370   -1.352051
H      1.952981   -1.795654   -0.414689
H     -4.272965   -2.626290    0.722111
H     -4.436407   -2.832388   -1.042582
H     -5.374565   -0.739991   -0.805683
H     -4.334380   -0.288383    0.610870
H     -0.689055    4.177407    0.254335
H     -2.051521    3.350052    1.190232
H      2.173384    1.045034    0.687386
H      1.621765   -0.366287    1.617144
H     -2.110079   -3.243954    0.187894
H     -2.168861   -2.630612   -1.496812
H     -2.484325    2.837293   -1.157734
H     -0.717903    2.372409   -1.322018
H     -3.354560   -0.724840   -2.244061
H     -3.779019    0.898989   -1.608729
H      0.791886    2.537537    0.834286
H     -0.321207    2.403858    2.292576
H      0.176340   -1.870085    0.803809
H      0.002543   -1.718369   -1.006599
H      0.346178    0.513163   -1.004020
H     -2.060322   -0.989393    1.095793
H     -2.690595    1.299373    0.777938
