54

C      5.207532    0.977282   -0.445274
C      0.483609    2.361860   -1.422964
C     -0.548921   -1.680991    0.391819
C     -3.864191    1.399895    0.790124
C     -2.511855   -0.888503    2.305142
C      2.702526    0.784191   -0.108921
C     -0.410434    0.193271   -2.202774
C      1.597683   -0.183796    0.260271
C     -1.753804   -0.377177   -1.733879
C     -1.341040    0.002505    1.962289
C     -3.549074   -0.959445    1.230314
C      4.248304   -1.126535    0.191351
C      4.038530    0.136699   -0.100552
C      0.152059    1.124777   -1.157209
C      0.318946    0.596226    0.224220
C     -2.006288    0.219870   -0.368145
C      5.540111   -1.788794    0.208470
C     -4.368378   -0.227286   -0.901413
C     -0.900600   -0.232858    0.553003
C     -3.375113    0.086398    0.156062
O      5.654388   -3.019215    0.503161
O      6.700702   -1.097035   -0.098075
O     -5.022212   -1.298269   -0.969800
O     -4.595839    0.722504   -1.885386
H      4.919223    2.031517   -0.656249
H      5.752073    0.601234   -1.357554
H      5.958408    1.047341    0.368971
H      0.883163    3.008966   -0.661594
H      0.356409    2.745010   -2.420631
H     -1.388191   -2.373723    0.601066
H     -0.138533   -1.964464   -0.573763
H      0.208421   -1.920712    1.178245
H     -3.073644    2.180199    0.584400
H     -4.842269    1.712705    0.416790
H     -3.936836    1.322398    1.884101
H     -2.067412   -1.903133    2.526042
H     -2.902289   -0.536403    3.284944
H      2.519918    1.049792   -1.185217
H      2.687437    1.708587    0.470235
H      0.305342   -0.594313   -2.484814
H     -0.548653    0.815160   -3.121565
H      1.728719   -0.582685    1.287592
H      1.645498   -0.993458   -0.506527
H     -2.509686   -0.072444   -2.480742
H     -1.747478   -1.482938   -1.729575
H     -0.499828   -0.228401    2.642056
H     -1.563042    1.077406    2.086505
H     -4.532300   -0.713670    1.737485
H     -3.728556   -1.973759    0.817527
H      3.379615   -1.750145    0.447248
H      0.408814    1.408302    0.973038
H     -1.838843    1.331902   -0.522451
H      7.566673   -1.277550    0.389953
H     -5.398794    0.601709   -2.507936
