104

C      7.958870    1.797863   -0.951207
C     -7.094919   -2.087644   -1.827229
C     -2.692955    3.962331    3.568606
C     13.634897   -0.728773   -2.813392
C    -13.624602   -2.258436   -2.152709
C     12.171927   -0.476529    2.540661
C    -10.969532   -1.766722    2.686543
C      5.243674    1.064272    1.466637
C      5.487273   -1.194867    2.035093
C     -5.300963    1.901901    0.353214
C     -4.574779   -0.336944    0.119598
C      3.883910    1.015929    1.701146
C      4.137239   -1.261917    2.273682
C     -3.970620    2.343727    0.286971
C     -3.276881    0.096431    0.055978
C      0.568674    1.240871    3.558628
C     -0.477800    2.113179    3.554538
C      8.516775   -0.532459   -2.716924
C     -9.098156   -0.141364   -3.259198
C      7.215988    0.038905   -2.275898
C     -7.615251   -0.239316   -3.265229
C      7.538114   -0.009929    1.385116
C     -7.026648    0.055244    0.380120
C     10.897442   -0.596954   -2.077938
C    -11.064208   -1.161574   -2.094932
C      0.183084    0.760804    1.258556
C     10.229906   -0.473097    0.593540
C     -9.702116   -0.913041    0.307671
C      6.074857   -0.006360    1.619366
C     -5.638814    0.572470    0.273772
C      9.576927   -0.533054   -1.689865
C     -9.774911   -0.612784   -2.039873
C      3.290580   -0.150172    2.112926
C     -2.959007    1.447656    0.140643
C      0.923892    0.538169    2.396246
C      9.232643   -0.471629   -0.366806
C     -9.107367   -0.494955   -0.841294
C      7.790191   -0.417551   -0.026400
C     -7.712989    0.059163   -0.928642
C     -1.232936    2.338223    2.397165
C     11.924617   -0.601043   -1.136213
C    -11.662747   -1.585892   -0.926981
C     11.551606   -0.538129    0.190480
C    -10.988184   -1.464180    0.273158
C     -0.892477    1.660889    1.270644
N      7.195378    0.555720   -0.939043
N     -7.087636   -0.645970   -2.001853
O     -2.282187    3.227813    2.440778
O     13.266866   -0.663182   -1.449985
O    -12.936145   -2.137430   -0.918655
O     12.525319   -0.538992    1.177025
O    -11.608582   -1.897457    1.429909
O      1.961056   -0.340414    2.384290
O     -1.624899    1.853597    0.080093
H      8.539736    1.967889   -0.046918
H      7.184002    2.616921   -1.024851
H      8.593399    1.895636   -1.857562
H     -6.099855   -2.458084   -2.160636
H     -7.827826   -2.551944   -2.544445
H     -7.276324   -2.420637   -0.805322
H     -2.822704    3.354864    4.473067
H     -2.043683    4.840087    3.755858
H     -3.705694    4.417777    3.351884
H     13.083197    0.002515   -3.437385
H     14.745372   -0.556614   -2.915118
H     13.468795   -1.732213   -3.245348
H    -14.611797   -2.745939   -2.003914
H    -13.724735   -1.270008   -2.655337
H    -13.060009   -2.899461   -2.857935
H     11.590142   -1.403892    2.814564
H     11.510529    0.431778    2.663785
H     13.049334   -0.336554    3.185943
H    -11.405316   -2.477635    3.449408
H    -11.079291   -0.753855    3.122795
H     -9.890072   -2.068119    2.648492
H      5.693527    1.986804    1.145823
H      6.140936   -2.061665    2.162114
H     -6.093842    2.634096    0.472891
H     -4.848047   -1.377229    0.055347
H      3.238675    1.878679    1.574410
H      3.701798   -2.205922    2.599324
H     -3.836702    3.422783    0.339005
H     -2.456576   -0.595805   -0.061155
H      1.154040    1.058411    4.444748
H     -0.781179    2.682299    4.451649
H      8.357357   -1.607475   -3.004420
H      8.866581    0.048625   -3.612756
H     -9.464750   -0.688434   -4.163102
H     -9.367197    0.952792   -3.344879
H      6.388760   -0.727070   -2.330244
H      6.857907    0.864182   -2.951086
H     -7.136099    0.737911   -3.514578
H     -7.225975   -0.942023   -4.045907
H      8.013561    0.963750    1.647929
H      7.989664   -0.769632    2.060694
H     -7.014209   -0.986907    0.815041
H     -7.640652    0.656730    1.084922
H     11.182945   -0.646330   -3.125116
H    -11.588286   -1.252884   -3.030993
H      0.404434    0.254220    0.328552
H      9.934830   -0.422083    1.620444
H     -9.165139   -0.808489    1.226264
H      7.309827   -1.393120   -0.191828
H     -7.816779    1.124873   -1.262548
