74

C      8.148843    2.363553   -1.812317
C     -7.291945    0.067906   -0.051502
C     -6.599144   -0.382654    2.233088
C     -4.996872    0.083668   -3.402719
C      6.901974    1.550695   -1.478983
C      7.107532    0.176705   -2.038363
C      5.934167   -0.735551   -1.786495
C      5.740316   -0.853832   -0.287339
C      4.576395   -1.774723    0.010718
C      4.416240   -1.881368    1.503670
C      4.147435   -0.601521    2.172803
C      3.019025    0.252330    1.806881
C      1.647270   -0.259527    1.945291
C      1.219003   -1.397108    1.114120
C     -4.668192   -0.640478   -1.040772
C     -5.037158    2.062784   -0.292490
C     -2.746956    1.411291   -0.976709
C     -1.928769   -0.683370    0.073430
C     -6.505487    0.604939    1.125762
C     -4.627899    0.310762   -2.001207
C     -4.157146    1.641266   -1.464710
C     -5.108035    0.995504    0.756877
C     -1.196093   -0.804635    1.160121
C     -4.247366   -0.140994    0.299878
C     -0.184498   -1.850662    1.372203
C     -1.550915    0.294987    2.043736
C     -2.824678    0.446218    0.185064
O     -0.234325   -2.363855    2.658531
O     -1.075998    0.541057    3.207633
O     -2.521408    1.054932    1.402797
H      8.317842    3.148452   -1.056818
H      8.008542    2.818482   -2.814082
H      8.998194    1.679729   -1.792593
H     -7.281006    0.747302   -0.923391
H     -7.067303   -0.979444   -0.286220
H     -8.369609    0.067192    0.292235
H     -5.694264   -0.457188    2.860683
H     -6.856521   -1.405378    1.868616
H     -7.432760   -0.121847    2.945597
H     -5.848393   -0.597458   -3.475815
H     -5.317591    1.076544   -3.826043
H     -4.138577   -0.238543   -4.036216
H      5.993037    1.991664   -1.890485
H      6.833141    1.566617   -0.377753
H      7.267086    0.214225   -3.136228
H      7.991065   -0.300315   -1.533747
H      4.983109   -0.311028   -2.183870
H      6.078425   -1.738467   -2.204849
H      6.623706   -1.191006    0.253497
H      5.467221    0.171013    0.052022
H      3.648397   -1.453646   -0.460897
H      4.892857   -2.795053   -0.348168
H      3.843721   -2.762334    1.757446
H      5.514366   -2.144421    1.872311
H      4.215126   -0.727739    3.324337
H      5.090899    0.039933    2.017786
H      3.037752    1.225996    2.430919
H      3.193291    0.694718    0.761206
H      1.484431   -0.508861    3.028031
H      0.972848    0.621417    1.667458
H      1.834605   -2.325866    1.236659
H      1.300987   -1.052637    0.035174
H     -4.976128   -1.654890   -1.242220
H     -6.015914    2.335115   -0.725533
H     -4.592913    3.015131    0.082102
H     -2.103764    0.974362   -1.739561
H     -2.277262    2.343282   -0.603254
H     -1.864313   -1.344264   -0.785518
H     -7.052889    1.527393    1.455374
H     -4.217807    2.427975   -2.237648
H     -4.618482    1.419258    1.674619
H     -4.157050   -0.955040    1.041722
H     -0.356544   -2.738792    0.694329
H     -0.706870   -1.789904    3.298724
