21

C      2.552293    0.101594    0.484958
C      0.485404    1.390821    0.172879
C      1.148117    0.250663    0.066316
C     -0.889904    1.528543   -0.239513
C      0.422703   -0.910702   -0.502023
C     -1.706485    0.299239   -0.513322
C     -0.979252   -0.901979    0.068490
O     -1.395128    2.674386   -0.366817
O      0.442345   -0.822275   -1.879857
O     -2.899148    0.463283    0.181882
O     -0.873272   -0.715729    1.443481
H      2.557730   -0.020696    1.590375
H      3.136865    1.009283    0.214208
H      2.987779   -0.757497   -0.042113
H      1.052532    2.226440    0.596651
H      0.905237   -1.869164   -0.217602
H     -1.924637    0.196674   -1.579184
H     -1.499276   -1.826599   -0.178167
H      0.070548   -1.654652   -2.280798
H     -2.741542    0.923995    1.064761
H     -0.852911   -1.585628    1.915397
