21

C      2.544760    0.395916   -0.115889
C      0.390846    1.543613    0.290168
C      1.081704    0.445898   -0.049158
C     -1.069104    1.524215    0.336944
C      0.226008   -0.753999   -0.362408
C     -1.838331    0.233593    0.404125
C     -0.788063   -0.821849    0.770219
O     -1.689857    2.619012    0.320209
O      0.954602   -1.898085   -0.511120
O     -2.264330   -0.092220   -0.886163
O     -1.318030   -2.058481    0.961027
H      2.869148    0.836529   -1.065633
H      2.835974   -0.687256   -0.145271
H      3.025214    0.861430    0.778731
H      0.983491    2.420495    0.520162
H     -0.278841   -0.508638   -1.321705
H     -2.656982    0.269029    1.121231
H     -0.314996   -0.473129    1.696917
H      1.192611   -2.027985   -1.474647
H     -2.271554    0.717918   -1.447712
H     -1.614269   -2.546006    0.179973
