43

C      5.197198   -1.769458    1.103424
C      1.889129    0.813804   -1.670001
C     -3.087637    3.244675    0.720890
C      2.963054    0.553309   -2.483554
C     -1.717413    3.301563    0.631510
C      2.999716   -0.341222    0.114173
C     -5.106167    0.379299    0.373849
C     -2.686930   -2.600646   -0.200573
C      1.919417    0.360424   -0.370673
C     -3.840756   -0.192815    0.180862
C     -3.680970    2.006633    0.548616
C      4.056250   -0.156634   -1.993158
C     -3.782429   -1.624423   -0.068257
C     -0.960137    2.148818    0.376069
C      4.080768   -0.607753   -0.691996
C     -2.941522    0.867740    0.296732
C     -1.541726    0.924599    0.204793
C     -0.483794   -0.066015   -0.049178
C      0.747120    0.652990    0.492993
C     -0.659423   -1.317998    0.684770
N     -4.995377    1.697046    0.593020
N     -1.519355   -2.278248    0.605162
O      5.126222   -0.400041   -2.851509
O     -4.928210   -2.113245   -0.194793
O      0.273112   -1.542363    1.670389
O      5.189026   -1.309217   -0.248954
O      0.422777    2.039800    0.258347
H      5.160099   -0.842761    1.729370
H      6.155777   -2.288572    1.310874
H      4.324568   -2.419513    1.285086
H      1.011565    1.375015   -2.037855
H     -3.676810    4.147043    0.920476
H      2.940234    0.911065   -3.510458
H     -1.230306    4.265882    0.764006
H      3.017891   -0.700602    1.152733
H     -6.036251   -0.193558    0.344249
H     -2.389149   -2.786086   -1.252808
H     -3.085122   -3.576204    0.205278
H     -0.372924   -0.225260   -1.155342
H      0.919269    0.449466    1.553315
H     -5.769976    2.373003    0.767331
H      5.923065   -0.912899   -2.507812
H      0.176127   -2.246642    2.398607
