43

C      4.786215   -2.137550   -2.510625
C      2.769722    0.996791    1.296670
C     -3.359206   -2.254012    1.925152
C      4.090755    1.112985    0.913415
C     -1.987547   -2.385441    2.048832
C      2.461497   -0.713922   -0.253693
C     -5.221945    0.179888    0.144666
C     -2.798098    2.866817   -1.006043
C      1.916493    0.071146    0.715662
C     -3.928560    0.575765   -0.105035
C     -3.887528   -1.221753    1.179719
C      4.629431    0.323410   -0.057637
C     -3.766807    1.748358   -0.940081
C     -1.191533   -1.457678    1.406549
C      3.804157   -0.636536   -0.682247
C     -3.086160   -0.301751    0.543007
C     -1.694491   -0.413844    0.653226
C     -0.521257    0.325525    0.149252
C      0.530964    0.007859    1.171615
C     -0.705054    1.754674   -0.088191
N     -5.179612   -0.931439    0.939754
N     -1.535617    2.585985   -0.498335
O      5.963063    0.423192   -0.460866
O     -4.685884    1.807775   -1.815142
O      0.489587    2.423494    0.282612
O      4.309129   -1.397290   -1.611664
O      0.224730   -1.388728    1.389732
H      5.924824   -2.069342   -2.718398
H      4.729396   -3.262785   -2.244660
H      4.299367   -2.155188   -3.548674
H      2.378718    1.636722    2.075412
H     -3.987340   -2.976005    2.424938
H      4.749124    1.860626    1.395295
H     -1.577859   -3.204486    2.638296
H      1.843773   -1.452304   -0.740765
H     -6.104460    0.660704   -0.222766
H     -3.259740    3.814843   -0.615359
H     -2.685158    3.077263   -2.121205
H     -0.252100   -0.150130   -0.834158
H      0.384992    0.590618    2.082022
H     -6.031266   -1.439315    1.281956
H      6.352541   -0.164787   -1.181565
H      0.808745    3.269844   -0.138987
