36

C      2.779982    1.301203   -0.252598
C      2.781733   -1.044478   -0.155554
C      3.965689    1.250666   -0.950723
C      3.965685   -1.127367   -0.851827
C      0.907549    0.207015    0.938160
C     -3.392292   -0.429598   -1.098352
C      2.140368    0.125363    0.174209
C      4.567527    0.055845   -1.256864
C     -0.208954   -0.439254    0.658312
C     -3.549239   -0.944490    0.309805
C     -1.502283   -0.445940    1.342641
C     -2.270697   -1.596250    0.732548
C     -0.371853   -1.289042   -0.510177
C     -2.256505    1.395188   -0.210001
C     -2.375315    0.728153    1.115048
O      5.753516   -0.071333   -1.952691
O      0.368498   -1.384749   -1.546688
O     -0.955591    1.508433   -0.694636
O     -2.180885    1.627585    2.165136
O     -3.115354    0.907961   -1.189193
O     -1.524133   -2.061586   -0.378102
O     -3.660841    0.148636    1.177028
H      2.358498    2.271794   -0.045461
H      2.336071   -1.973084    0.164769
H      4.479845    2.159633   -1.293321
H      4.418160   -2.082550   -1.080486
H      0.840860    0.843014    1.833118
H     -4.354198   -0.616412   -1.621097
H     -2.625121   -0.984214   -1.674544
H     -4.443460   -1.593066    0.420155
H     -1.438222   -0.646888    2.430452
H     -2.401157   -2.450152    1.426244
H     -2.604663    2.465313   -0.044185
H      6.315494    0.669523   -2.318933
H     -0.712597    2.457310   -0.931843
H     -2.036118    1.057816    2.978801
