104

C     -8.402671   -2.618161    0.777558
C      9.373273    3.945179    2.077203
C      2.222619   -0.762327   -3.836523
C    -14.126331    0.529944    1.359850
C     11.760373   -2.387536   -1.827271
C    -11.055519    0.573619   -3.281041
C      7.500088   -2.504137    1.764493
C     -4.993088   -1.812468   -0.050578
C     -4.757445    0.532485    0.220455
C      4.983631    1.711133    0.968165
C      5.942786    0.631347   -0.890466
C     -3.675648   -2.007035    0.391008
C     -3.438454    0.357656    0.664246
C      4.043845    0.710866    1.066488
C      4.987592   -0.387633   -0.792291
C     -0.832040   -0.869113   -1.048084
C      0.182635   -0.835163   -1.961195
C     -9.336998   -0.325056    2.839374
C     10.342406    2.473571   -1.131331
C     -8.218519   -1.300143    2.713928
C     10.304296    3.437826    0.006988
C     -6.916586   -0.305331   -0.584170
C      6.979001    2.758580   -0.142598
C    -11.374445    0.121035    1.446111
C     10.494189   -0.019006   -1.005569
C      0.738491   -1.219786    0.658212
C     -9.843739    0.141218   -0.830716
C      8.415174   -0.061650    0.745379
C     -5.527505   -0.552284   -0.134216
C      5.952219    1.692331   -0.011902
C    -10.018636   -0.083876    1.520257
C      9.894448    1.155735   -0.621597
C     -2.927513   -0.914809    0.739053
C      4.017203   -0.376872    0.182333
C     -0.576633   -1.063126    0.289775
C     -9.235030   -0.073741    0.357943
C      8.841730    1.155943    0.262693
C     -7.799781   -0.305418    0.598905
C      8.199706    2.427339    0.672647
C      1.516013   -0.997597   -1.557434
C    -12.019569    0.342212    0.249296
C     10.079333   -1.254452   -0.531082
C    -11.204953    0.345555   -0.892472
C      9.017154   -1.245047    0.360367
C      1.800991   -1.193153   -0.227046
N     -7.705320   -1.506564    1.396513
N      9.065504    3.552755    0.692766
O      2.521392   -0.961037   -2.484883
O    -13.387916    0.551278    0.152020
O     10.679199   -2.446934   -0.913287
O    -11.823205    0.563871   -2.100784
O      8.567645   -2.447230    0.860955
O     -1.634053   -1.089174    1.174516
O      3.055688   -1.366635    0.313152
H     -7.985297   -2.897326   -0.197454
H     -8.295066   -3.485699    1.450453
H     -9.484196   -2.386738    0.621236
H      8.553144    4.484631    2.548231
H      9.675784    3.018497    2.604176
H     10.264461    4.599890    2.072728
H      1.760048    0.226712   -4.038952
H      3.104322   -0.863814   -4.486483
H      1.478534   -1.526729   -4.178895
H    -15.206003    0.708315    1.212440
H    -13.728855    1.370817    1.988626
H    -13.927275   -0.397559    1.957256
H     11.433636   -1.967078   -2.818363
H     12.579159   -1.732314   -1.481420
H     12.202062   -3.389559   -2.007761
H    -11.702284    0.752667   -4.182566
H    -10.524753   -0.363222   -3.473504
H    -10.394329    1.466924   -3.227539
H      7.732251   -1.819769    2.608505
H      6.537034   -2.224712    1.329825
H      7.394828   -3.534461    2.168173
H     -5.598315   -2.679044   -0.330469
H     -5.124741    1.551632    0.175455
H      4.985708    2.542470    1.662647
H      6.702224    0.608027   -1.666480
H     -3.326356   -3.031646    0.429084
H     -2.849714    1.236790    0.939654
H      3.280220    0.710472    1.826788
H      5.020623   -1.218886   -1.505219
H     -1.863972   -0.743350   -1.360272
H      0.012907   -0.685255   -3.012740
H     -8.934613    0.660550    3.161911
H    -10.104685   -0.621563    3.590428
H     11.402723    2.394246   -1.462052
H      9.767359    2.798681   -2.015553
H     -7.391096   -1.060953    3.438093
H     -8.607245   -2.295884    3.073632
H     10.539918    4.456805   -0.421368
H     11.168443    3.216406    0.672241
H     -6.907892    0.614419   -1.168987
H     -7.150226   -1.137412   -1.304825
H      6.613939    3.747985    0.207161
H      7.268536    2.897593   -1.201864
H    -11.991035    0.116177    2.340840
H     11.329543   -0.029188   -1.706063
H      0.918084   -1.373513    1.732009
H     -9.208143    0.142420   -1.708194
H      7.572514   -0.054555    1.452040
H     -7.464000    0.530811    1.281252
H      7.825055    2.247303    1.723694
