36

C      2.836316    0.278979   -0.651829
C      2.831784   -0.561360    1.538723
C      4.042860   -0.376509   -0.900394
C      4.027160   -1.214799    1.304093
C      0.940790    0.851310    0.846374
C     -3.724475   -0.307021   -1.304158
C      2.211226    0.197480    0.568787
C      4.647036   -1.129120    0.078048
C     -0.107913    0.780859    0.077297
C     -3.445520    1.123965   -0.900643
C     -1.416575    1.391731    0.251267
C     -2.021684    1.491510   -1.158224
C     -0.221108    0.014482   -1.157447
C     -2.460451   -0.882748    0.540037
C     -2.444222    0.553783    0.934814
O      5.864351   -1.794944   -0.161671
O      0.517083   -0.964560   -1.504585
O     -1.306889   -1.513180    0.934871
O     -2.376396    0.634614    2.322717
O     -2.718037   -1.097678   -0.801439
O     -1.279326    0.547973   -1.878199
O     -3.632433    1.179722    0.490858
H      2.438994    0.863764   -1.468604
H      2.325730   -0.617794    2.502094
H      4.518127   -0.296049   -1.878955
H      4.493462   -1.801852    2.077827
H      0.875017    1.444882    1.777416
H     -3.775162   -0.431721   -2.398114
H     -4.732588   -0.582431   -0.903267
H     -4.127700    1.839796   -1.404001
H     -1.399372    2.383163    0.743110
H     -1.901340    2.521293   -1.555927
H     -3.305198   -1.361632    1.110920
H      6.751044   -1.330169    0.023809
H     -1.482670   -2.504983    0.941633
H     -1.441924    0.669244    2.649147
