50

C     -0.395714   -3.491445    1.233438
C     -1.171009   -2.149171   -1.575268
C      2.970928    0.663133    1.228760
C      3.444981    0.480297   -1.222313
C      0.103984    3.598149   -1.275287
C      1.183068   -1.598988    1.048508
C     -3.459568    0.266423   -0.121779
C     -1.727808    2.089749   -0.453528
C     -0.147136   -2.020521    1.480762
C     -1.508836   -0.843042   -1.103216
C     -2.158157    0.921713   -0.164833
C     -3.021629   -1.019486   -0.799886
C      1.464384   -0.880276   -0.222254
C     -0.048524    0.599281    0.622763
C     -1.337944   -1.166401    1.148058
C      0.143804    2.067831    0.737580
C      2.419358    0.361307   -0.117389
C     -0.246340    2.292982   -0.740908
C     -1.161817   -0.118004    0.105282
C      1.039084    0.448526   -0.451957
O     -3.772008   -1.912916   -1.005353
O     -2.374123   -1.309410    1.682625
O     -0.643453    2.726982    1.626126
O      0.378390    1.181244   -1.360589
H     -0.049161   -4.140045    2.065997
H     -1.481823   -3.682715    1.079701
H      0.230749   -3.784038    0.365212
H     -1.836208   -3.000459   -1.181964
H     -1.539563   -2.216807   -2.671639
H     -0.210433   -2.591884   -1.658046
H      3.779149   -0.031429    1.545729
H      3.472936    1.669628    1.139717
H      2.284453    0.744770    2.060802
H      3.071182    0.059608   -2.171472
H      4.339806   -0.093719   -0.879186
H      3.741744    1.540625   -1.285789
H     -0.727739    4.314157   -1.135932
H      0.426334    3.515646   -2.330203
H      0.969806    4.013907   -0.718622
H      1.803005   -1.173037    1.912093
H      1.773730   -2.578441    0.937989
H     -4.232881    0.746860   -0.767884
H     -3.930570    0.120292    0.838591
H     -2.321761    2.989967   -0.520851
H     -0.115105   -1.985985    2.629142
H     -1.588818   -0.134180   -1.987348
H      1.748884   -1.520370   -1.116834
H      0.354239    0.233050    1.604802
H      1.209113    2.358643    0.762983
H     -1.144980    3.437997    1.183670
