65

C      4.765845   -0.247869   -2.898990
C      5.965895   -2.591144    2.384955
C      7.865776   -0.455924   -0.080440
C     -6.795925    1.572563    0.267487
C      0.983023    0.770311   -2.113484
C      2.241578    0.840420   -2.396391
C      0.488065    0.820752   -0.758528
C      3.285879    0.977351   -1.384062
C     -0.826532    0.746555   -0.489387
C     -1.982439    2.170961    1.089959
C     -3.192738    1.961877    0.194473
C     -4.002885   -0.254087   -0.651958
C     -7.720782    0.262091    2.114750
C      4.189351   -0.240319   -1.521481
C      6.213824   -1.366669    1.526858
C      7.537588   -1.623970    0.798838
C     -1.331804    0.799161    0.911624
C     -5.126225   -1.076506   -0.092736
C     -5.481573   -0.371550    1.164954
C      5.171235   -1.337360    0.453067
C     -7.381708   -0.729940   -0.133788
C     -6.837408    0.201327    0.894477
C     -3.525241    0.521034    0.540889
O     -8.994302    0.662112    1.661396
O      8.542556   -1.952638    1.689829
O      4.286959   -2.228626    0.367353
O     -8.561787   -1.144834   -0.261008
O      5.136352   -0.323410   -0.495160
O     -6.275863   -1.045170   -0.937170
O     -2.404909   -0.052283    1.073677
O     -4.523058    0.538402    1.479947
H      4.080651   -0.726369   -3.618044
H      4.895312    0.809612   -3.262346
H      5.752535   -0.774182   -2.906688
H      5.484275   -3.359039    1.739873
H      6.905311   -3.028953    2.765638
H      5.242215   -2.384668    3.212206
H      7.585729   -0.659936   -1.151207
H      7.331992    0.452608    0.223711
H      8.978951   -0.306042   -0.110236
H     -6.528982    2.352558    1.025294
H     -7.817898    1.805311   -0.082657
H     -6.128101    1.614016   -0.609140
H      0.229872    0.666714   -2.926690
H      2.576472    0.797198   -3.451883
H      1.098711    0.916373    0.119999
H      3.901239    1.880388   -1.708903
H      2.928700    1.126184   -0.377675
H     -1.482833    0.647809   -1.337523
H     -2.353998    2.324280    2.110891
H     -1.333617    2.984506    0.713018
H     -2.847018    2.082079   -0.845458
H     -4.018353    2.650643    0.456335
H     -4.263670    0.354450   -1.514378
H     -3.201675   -0.983401   -0.963276
H     -7.346370    1.091786    2.750424
H     -7.759792   -0.681169    2.675036
H      3.505763   -1.124731   -1.412902
H      6.255265   -0.442157    2.101451
H      7.381544   -2.504770    0.130195
H     -0.554988    0.615364    1.649210
H     -4.819041   -2.117113    0.131850
H     -5.593821   -1.072044    2.036263
H     -9.041252    1.652181    1.571056
H      9.248127   -2.462102    1.212211
