66

C      1.752515    0.805285   -3.343243
C      6.465372   -0.658426    1.340409
C      4.212565   -1.928506    1.519071
C     -0.936060    4.487151   -0.440315
C     -1.633044    3.926573    1.894425
C     -3.631290   -1.266383    2.100245
C     -4.904847   -1.986483    0.141470
C     -0.187911   -3.318270    0.299372
C     -1.464886   -2.826556   -1.735764
C      1.172319    0.030460   -2.441673
C      3.209630   -0.432428   -0.636143
C      4.604834   -0.194060   -0.152430
C      2.373540    0.844755   -0.518174
C     -2.215337    2.346593    0.029558
C      0.003074    1.611872   -0.947338
C      5.068188   -0.898873    0.858000
C     -1.917786    3.736523    0.421381
C     -1.144311    1.343554   -0.007784
C     -1.637296   -0.025442   -0.100088
C     -3.047919   -0.347092   -0.077701
C     -0.732555   -1.015415   -0.208422
C     -2.507834   -2.611028    0.428191
C     -3.559299   -1.577810    0.624792
C     -1.240118   -2.405786   -0.300303
C      0.991128    0.470384   -1.036788
O     -3.831210    0.434866   -0.664985
O     -2.711335   -3.713339    0.907295
O      0.590717   -0.650758   -0.225523
H      2.120501    1.806844   -3.074750
H      1.899577    0.513490   -4.375883
H      7.069286   -0.151362    0.566082
H      6.933116   -1.658871    1.495978
H      6.403548   -0.113803    2.283425
H      3.298954   -1.372927    1.870956
H      3.963425   -2.738019    0.821568
H      4.735235   -2.259964    2.429749
H      0.042648    4.660686    0.052595
H     -1.316316    5.550726   -0.602164
H     -0.897553    4.067401   -1.445142
H     -2.576269    3.913874    2.487582
H     -1.213940    4.948561    2.012433
H     -0.895965    3.226523    2.295423
H     -4.424756   -0.537358    2.349815
H     -3.702034   -2.175472    2.728449
H     -2.653776   -0.769964    2.363488
H     -5.026752   -1.923870   -0.958502
H     -5.659207   -1.316500    0.636522
H     -5.108523   -3.009787    0.495680
H     -0.435326   -4.350524   -0.033126
H      0.826375   -3.065788   -0.059746
H     -0.208386   -3.209258    1.404833
H     -2.206603   -3.661340   -1.734571
H     -0.527127   -3.241560   -2.163010
H     -1.899365   -2.024150   -2.351743
H      0.826684   -0.943838   -2.749201
H      2.732827   -1.252820   -0.083540
H      3.298345   -0.747242   -1.695735
H      5.247626    0.546346   -0.613233
H      2.842274    1.576887   -1.182014
H      2.348701    1.179735    0.517523
H     -2.966294    1.979850    0.797365
H     -2.712350    2.424847   -0.987714
H     -0.357219    1.810911   -1.974912
H      0.607090    2.468473   -0.559590
H     -2.904916    4.287633    0.283945
H     -0.644383    1.380268    1.023630
