54

C     -3.304101    2.675528   -0.807248
C      3.691912   -1.965678   -2.584323
C      2.018727    2.736935    2.196746
C      3.309514    2.576356    1.779655
C      2.392258   -1.831781   -2.190510
C     -3.283203   -0.764293    2.141992
C     -2.486530   -1.975377    1.730916
C     -0.470845   -0.684332    1.169902
C     -3.033793   -1.293918   -1.318224
C      4.720271   -1.165574   -2.041437
C      1.043274    1.938567    1.643871
C      3.626526    1.628002    0.819399
C      2.034175   -0.879806   -1.218988
C     -3.705886   -0.189312    0.802962
C      4.345873   -0.239392   -1.090911
C      3.009797   -0.089003   -0.674084
C      2.623157    0.832350    0.274872
C      1.309122    0.966598    0.671789
C      5.255241    0.604002   -0.482059
C     -1.302886   -2.427516   -0.392728
C     -1.943076    0.816772   -0.606671
C     -1.647356   -1.398626    0.586433
C     -2.524771   -0.461831   -0.134118
C      0.191172    0.140375    0.120141
O      5.996254   -1.320948   -2.450598
O     -0.246924    2.111965    2.073042
O     -4.840289   -0.893321    0.393347
O      6.457894    0.520376   -0.808412
O     -0.266511   -3.130232   -0.513169
O     -2.573447    1.881933    0.042593
O     -2.388085   -2.523625   -1.247757
O      4.865099    1.490136    0.434496
O      0.741923   -0.738657   -0.819664
O     -0.622823    1.000488   -0.555287
H     -3.803166    3.518071   -0.296229
H     -4.102804    2.112405   -1.345345
H     -2.667013    3.124932   -1.610021
H      3.953912   -2.714598   -3.344552
H      1.738611    3.479550    2.955284
H      4.093390    3.203591    2.210351
H      1.598609   -2.438348   -2.599197
H     -2.695888   -0.062391    2.747566
H     -4.169503   -1.095099    2.732928
H     -1.789214   -2.329168    2.516255
H     -3.151393   -2.781724    1.388444
H     -0.774077   -0.164379    2.069337
H      0.272175   -1.475129    1.483021
H     -4.129678   -1.353068   -1.335518
H     -2.719708   -0.789993   -2.263628
H     -3.915825    0.868003    0.947612
H     -2.241689    0.937209   -1.694718
H      6.872374   -0.977437   -2.306988
H     -0.522569    2.776195    2.756584
H     -4.838208   -1.785782    0.819951
