56

C     -3.019246    0.518582   -1.772811
C     -4.693855    3.481978    1.527617
C      1.014296   -0.764259    4.028758
C     -3.865837   -2.681144    1.902420
C     -0.493483   -1.040497   -4.254373
C      5.703890    0.989259    0.044566
C      5.297115   -0.413931   -0.092912
C      5.339438    1.887115   -0.839831
C      2.843971   -0.534641   -0.203412
C      1.795226   -1.292702   -0.473078
C     -2.485266    1.075576   -0.477496
C     -3.629073    2.904184    0.700544
C      0.663249   -1.387123    2.718148
C     -2.954764   -1.521173    1.708294
C     -0.186900   -0.362885   -2.964929
C      4.112458   -0.660564   -0.964672
C      0.500072   -1.182722    0.284826
C      4.524931    1.521839   -1.977249
C     -1.700571    0.014055    0.235844
C     -0.458573   -0.314300   -0.517643
O     -2.682189    3.643551    0.265455
O      0.229525   -2.585862    2.683518
O     -2.515995   -0.912140    2.714569
O      0.519010    0.672711   -2.898190
O      4.179264    2.393412   -2.824220
O     -3.552017    1.570524    0.331015
O      0.795822   -0.701062    1.548768
O     -2.564925   -1.078015    0.462302
O     -0.684930   -0.872690   -1.791163
O      4.136859    0.188628   -2.107889
H     -4.124815    0.735471   -1.775660
H     -2.931160   -0.581575   -1.787184
H     -2.628986    1.034247   -2.656639
H     -5.469370    3.897957    0.833522
H     -4.365977    4.320392    2.158288
H     -5.164809    2.695332    2.159467
H      2.085115   -0.938732    4.271027
H      0.436510   -1.260567    4.840734
H      0.794603    0.322958    4.034404
H     -3.526667   -3.193736    2.828508
H     -4.912436   -2.372205    2.046550
H     -3.803459   -3.402561    1.080046
H      0.415767   -1.468135   -4.719696
H     -0.839587   -0.236707   -4.956041
H     -1.319276   -1.745649   -4.137477
H      6.326777    1.289900    0.909696
H      5.114928   -0.831767    0.936844
H      6.185501   -0.977080   -0.466720
H      5.654181    2.941668   -0.723511
H      2.754172    0.199748    0.607009
H      1.889968   -2.015608   -1.274042
H     -1.824012    1.923475   -0.701403
H      4.183870   -1.709661   -1.363811
H      0.112258   -2.217676    0.329841
H     -1.369253    0.418636    1.255875
H      0.158657    0.616170   -0.726404
