66

C      1.916081    0.052194   -2.475503
C      6.929408    0.578142    1.624971
C      5.985529    0.143995   -0.708153
C     -1.025511    3.422963    0.727100
C     -2.641641    4.080514   -0.961603
C     -4.725634   -2.097423   -1.473506
C     -4.787564   -1.459032    0.888271
C     -2.068641   -2.160474    2.294153
C     -0.871301   -3.710351    0.854406
C      1.543783   -0.822589   -1.551759
C      3.381611    0.753465    0.178963
C      4.524082    0.814395    1.119889
C      2.409035   -0.250037    0.700333
C     -1.523904    1.977229   -1.300647
C      0.408331    0.898440   -0.141223
C      5.740998    0.530440    0.709386
C     -2.016450    2.866018   -0.235205
C     -0.846661    0.711709   -0.960568
C     -1.650842   -0.377294   -0.416223
C     -3.093503   -0.440140   -0.636760
C     -1.039763   -1.331788    0.259225
C     -2.943690   -2.789390    0.041791
C     -3.896124   -1.672712   -0.289580
C     -1.768484   -2.490143    0.861401
C      1.189002   -0.397577   -0.196114
O     -3.788846    0.484205   -1.119040
O     -3.181860   -3.895075   -0.380213
O      0.357294   -1.347989    0.472818
H      1.982988    1.118766   -2.300101
H      2.180102   -0.275559   -3.486607
H      7.408666   -0.430268    1.684245
H      6.626662    0.830559    2.658823
H      7.622858    1.320778    1.179137
H      5.391962   -0.755440   -0.999475
H      7.060504   -0.023756   -0.905831
H      5.607239    0.980478   -1.341889
H     -1.392530    4.459258    1.036096
H     -1.017531    2.892048    1.724739
H     -0.043031    3.607386    0.306033
H     -1.783033    4.735589   -1.222171
H     -3.124643    3.766387   -1.886923
H     -3.282391    4.654485   -0.271389
H     -5.279109   -3.008870   -1.169465
H     -4.026992   -2.402092   -2.282149
H     -5.381934   -1.313966   -1.849505
H     -4.954498   -2.448078    1.403572
H     -4.377979   -0.778027    1.658244
H     -5.823584   -1.143010    0.583630
H     -2.111714   -1.043342    2.398767
H     -1.167224   -2.463473    2.903180
H     -2.951376   -2.648163    2.706221
H      0.167381   -3.412759    1.130351
H     -0.796132   -4.162131   -0.156667
H     -1.256138   -4.441516    1.599562
H      1.502716   -1.867220   -1.808238
H      2.891363    1.737695    0.072684
H      3.723617    0.398436   -0.836301
H      4.345543    1.093343    2.139435
H      2.854378   -1.217632    0.950508
H      2.006961    0.162388    1.671489
H     -0.723794    2.594668   -1.854670
H     -2.291757    1.848110   -2.081240
H      1.003628    1.722309   -0.603215
H      0.211057    1.055758    0.942068
H     -2.863147    2.479228    0.379463
H     -0.453820    0.305937   -1.959017
