90

C     -4.244213   -0.358515    1.918296
C      4.939225   -2.760692    2.165902
C     -2.240433    4.477179    2.670185
C      2.775173    4.803748   -1.786634
C     -3.302813   -2.980971    1.874589
C     -1.083249   -2.241991    2.108526
C      1.947696   -1.190119    3.073370
C      3.944631   -0.387079    1.817002
C     -2.995439   -0.684515    2.173086
C      3.666475   -2.653866    2.379936
C     -2.904278   -0.726861   -4.429996
C      1.505449   -2.134465   -3.879297
C     -3.799591   -1.742644   -4.355124
C      2.401690   -3.167695   -3.744354
C     -2.226446   -0.372990   -3.288530
C      1.159851   -1.362321   -2.762172
C     -3.998266   -2.378660   -3.146089
C      2.932894   -3.403674   -2.497279
C     -1.299807    3.761568    1.729625
C      1.517464    4.169802   -1.229093
C     -2.386395   -0.981315   -2.057454
C      1.677237   -1.586441   -1.510664
C     -3.281550   -1.985968   -2.003717
C      2.572849   -2.624621   -1.413248
C     -1.748246   -0.782391   -0.763868
C      1.466156   -0.987864   -0.248735
C     -0.754245    0.179584   -0.636180
C      0.640963    0.136924   -0.064765
C     -2.367143   -1.731147    0.003683
C      2.296518   -1.711468    0.581931
C     -0.902211    2.436608    2.308485
C      1.109202    3.095532   -2.168555
C     -1.666739    2.533193   -0.302965
C      1.360554    2.500253    0.498794
C     -2.358216   -1.870801    1.458270
C      2.798460   -1.469521    1.928975
C     -0.806703    1.464849    0.172988
C      0.676620    1.545445   -0.401312
N     -1.877993    3.582122    0.439833
N      1.719225    3.654037    0.097280
N     -3.271321   -2.438556   -0.761387
N      2.939881   -2.696093   -0.172537
N     -0.688961    1.429103    1.574242
N      0.755921    1.978939   -1.733428
O     -0.778128    2.364086    3.698850
O      1.133244    3.381169   -3.541244
O     -2.282770    2.482009   -1.527767
O      1.665836    2.231259    1.841262
H     -4.804321   -0.938767    1.201580
H     -4.687367    0.485592    2.430804
H      5.435290   -3.679305    2.550343
H      5.568252   -2.068712    1.656344
H     -2.529825    5.461303    2.259868
H     -3.065838    3.821012    2.926711
H     -1.616189    4.718130    3.578351
H      2.877376    5.849313   -1.400187
H      3.676056    4.235391   -1.563448
H      2.717348    4.913141   -2.887077
H     -4.319260   -2.873821    1.484432
H     -2.865496   -3.979106    1.582584
H     -3.311503   -2.944766    2.986539
H     -0.696380   -1.298538    2.596858
H     -1.176650   -2.954039    2.955084
H     -0.326321   -2.576204    1.388572
H      1.356859   -0.257594    3.094698
H      1.364738   -2.092568    3.437340
H      2.609563   -1.029494    4.025452
H      4.643589   -0.540956    2.629407
H      4.422341   -0.669082    0.842665
H      3.501026    0.589493    1.807768
H     -2.402646   -0.149023    2.890740
H      3.137453   -3.450513    2.920914
H     -2.676610   -0.183576   -5.348862
H      1.055090   -1.914511   -4.833137
H     -4.315880   -2.017832   -5.257547
H      2.672151   -3.773328   -4.603805
H     -1.527895    0.453581   -3.364729
H      0.495999   -0.578473   -2.942657
H     -4.697116   -3.178115   -3.065018
H      3.630323   -4.201362   -2.387921
H     -0.392858    4.427543    1.687855
H      0.768632    5.003829   -1.193534
H     -0.593139    0.742425   -1.620077
H      0.450817    0.198934    1.090481
H     -3.869817   -3.225922   -0.438917
H      3.619309   -3.400694    0.209911
H     -0.030860    1.747767    4.061958
H      0.387327    2.995014   -4.125858
H     -3.218523    2.843134   -1.677761
H      2.396901    2.696531    2.324556
