66

C      1.059740   -1.701583    1.435797
C      6.480667    1.855571   -2.140972
C      5.814899   -0.000752   -0.446338
C      0.149478    2.891785    2.715370
C     -1.944483    3.715809    1.812151
C     -3.182194   -2.449421    1.779971
C     -4.942736   -2.344113    0.103619
C     -1.051137   -2.961331   -2.428397
C     -3.026501   -1.559734   -2.636244
C      1.502151   -1.255195    0.269661
C      3.169594    1.039735   -0.454093
C      4.230836    1.665161   -1.286201
C      2.037447    0.544413   -1.313234
C     -1.635878    1.245341    1.917069
C      0.300706    0.946661    0.359841
C      5.459405    1.187904   -1.287422
C     -1.263328    2.528328    2.520621
C     -1.170408    0.957856    0.517854
C     -1.837607   -0.187674   -0.132335
C     -3.241800   -0.532669    0.205601
C     -1.234455   -0.927621   -1.042609
C     -2.664734   -2.785686   -0.559173
C     -3.520470   -1.980910    0.375396
C     -1.989347   -2.083942   -1.660955
C      0.933097   -0.103401   -0.474251
O     -4.090239    0.385228    0.324959
O     -2.531801   -3.976325   -0.414010
O      0.037377   -0.663140   -1.423419
H      0.222592   -1.237270    1.940584
H      1.519600   -2.538086    1.914328
H      6.571187    2.900748   -1.786378
H      7.460901    1.316344   -2.084032
H      6.143823    1.892125   -3.202209
H      5.121263   -0.821679   -0.680751
H      6.860317   -0.294749   -0.700577
H      5.708204    0.269579    0.611236
H      0.146891    3.790738    3.425226
H      0.700962    2.136318    3.354327
H      0.715626    3.252691    1.861608
H     -3.032187    3.560187    1.785189
H     -1.736233    4.591850    2.464079
H     -1.490746    3.912558    0.834536
H     -2.916391   -1.564800    2.425583
H     -4.054311   -2.924907    2.283215
H     -2.350336   -3.181024    1.794211
H     -4.975699   -3.466909   -0.007795
H     -5.298556   -1.957510   -0.883159
H     -5.621574   -2.113842    0.932078
H     -1.315911   -4.055110   -2.344825
H     -1.102008   -2.736972   -3.509091
H      0.000683   -2.793181   -2.114995
H     -3.561298   -0.683115   -2.246126
H     -2.597409   -1.377166   -3.624494
H     -3.791075   -2.372211   -2.751604
H      2.350565   -1.757582   -0.201804
H      2.796799    1.845074    0.240822
H      3.632234    0.286933    0.174315
H      3.947099    2.521958   -1.883854
H      2.456877   -0.152877   -2.054724
H      1.646796    1.416144   -1.876210
H     -2.753772    1.209053    1.927482
H     -1.378607    0.390668    2.618285
H      0.608296    1.939526   -0.091014
H      0.852499    0.932006    1.335958
H     -1.743419    2.560880    3.550519
H     -1.591964    1.853318   -0.068199
