47

C     -3.372324   -1.047264   -2.423454
C      5.558029   -1.528307   -0.034180
C      4.917325   -0.322373    0.039874
C      4.865077   -2.697888   -0.138111
C     -2.950716   -2.038835   -0.157756
C      0.669580    2.269878    0.123611
C     -1.395321    3.566471    0.158077
C     -2.675204   -0.872945   -1.119329
C     -0.614631    2.330210    0.087506
C      3.538223   -0.283560    0.009050
C      1.348733    0.962313    0.048111
C      3.453098   -2.707807   -0.173356
C     -2.567337   -1.524021    1.208145
C     -0.680426    4.795352    0.283820
C      2.827028   -1.477809   -0.097159
C      0.652269   -0.116796   -0.048235
C      2.818620    0.969202    0.084376
C      1.356195   -1.420880   -0.128596
C     -1.251952   -0.852808    1.228101
C     -0.837038   -0.154271   -0.044556
O      2.806612   -3.896214   -0.277535
O     -3.551735   -0.616574    1.593402
O      0.529172    4.967355    0.346727
O     -1.420531    6.029280    0.350571
O      3.502471    2.018164    0.178737
O      0.646624   -2.442501   -0.223374
O     -1.313810    0.169351    2.212605
O     -1.309469   -0.788980   -1.195554
O     -1.355695    1.130202   -0.032538
H     -4.346423   -0.485531   -2.363809
H     -2.841196   -0.653253   -3.288757
H     -3.677590   -2.120729   -2.550565
H      6.652121   -1.545976   -0.008765
H      5.461553    0.630245    0.124029
H      5.367550   -3.676361   -0.198615
H     -2.242111   -2.849997   -0.429474
H     -3.999214   -2.346093   -0.209332
H      1.338474    3.119981    0.207074
H     -2.059566    3.619099   -0.785428
H     -2.151848    3.478493    1.023474
H     -3.040263    0.050948   -0.602203
H     -2.520393   -2.392519    1.928053
H     -0.438976   -1.503518    1.557569
H      1.873439   -4.099758   -0.315335
H     -4.385122   -1.142823    1.768740
H     -0.997502    6.891240    0.077223
H     -2.185804    0.608607    2.207141
