90

C     -2.765984    4.348741   -1.459180
C      2.743131    2.754493   -2.647685
C     -2.542017   -3.224108   -3.702900
C      2.889761   -3.592173    3.490469
C     -0.626447    1.783073   -2.790748
C     -0.477079    3.115390   -0.614035
C      4.482331    2.253193   -0.736005
C      3.999400   -0.085695   -0.813193
C     -2.155646    3.463069   -2.236509
C      2.650343    1.562983   -2.050814
C     -5.097423   -1.625779    1.028200
C      0.567211    1.354043    4.585167
C     -6.059931   -0.781006    0.459624
C      1.618998    2.197580    4.888875
C     -3.755565   -1.370042    0.854206
C      0.418296    0.827432    3.298444
C     -5.599489    0.291199   -0.262878
C      2.507355    2.500354    3.893524
C     -2.050571   -2.462252   -2.498469
C      2.253882   -2.590550    2.550358
C     -3.325468   -0.284286    0.119131
C      1.302750    1.128671    2.308129
C     -4.238632    0.566229   -0.450323
C      2.332163    1.958540    2.617688
C     -2.035715    0.254672   -0.215888
C      1.368454    0.734874    0.941311
C     -0.875626   -0.408634    0.249144
C      0.543465   -0.262110    0.348518
C     -2.265021    1.407283   -0.965100
C      2.503956    1.384104    0.492398
C     -0.666910   -1.944424   -2.783423
C      0.790475   -2.633405    2.788153
C     -1.233814   -2.926100   -0.323326
C      1.754388   -2.520833    0.228654
C     -1.302751    2.362103   -1.568279
C      3.271579    1.279001   -0.763052
C     -0.515588   -1.691004   -0.458098
C      0.623956   -1.715954    0.639199
N     -1.997097   -3.324709   -1.315312
N      2.551239   -2.949424    1.149297
N     -3.601332    1.542824   -1.074307
N      3.046130    2.110634    1.536115
N      0.068789   -1.573176   -1.783175
N      0.008459   -2.206260    1.853721
O     -0.246640   -1.888772   -4.090798
O      0.211188   -3.100219    3.943659
O     -1.190274   -3.758646    0.785054
O      2.012544   -2.846405   -1.081176
H     -3.364771    5.123435   -1.912401
H     -2.695956    4.332604   -0.380811
H      3.280716    3.578321   -2.215566
H      2.272196    2.900745   -3.600261
H     -3.538992   -3.668074   -3.509682
H     -2.702432   -2.462718   -4.509284
H     -1.814620   -3.949209   -4.082643
H      3.583321   -4.272656    2.958302
H      2.129798   -4.216768    4.014776
H      3.438949   -3.046168    4.289366
H     -0.080139    0.881463   -2.656236
H     -0.027582    2.598273   -3.228755
H     -1.450842    1.624384   -3.581205
H     -0.689259    4.228764   -0.575982
H     -0.648164    2.715373    0.424520
H      0.597516    3.043153   -0.822463
H      5.246186    1.844089   -0.029392
H      4.192316    3.259363   -0.447681
H      4.926376    2.221077   -1.741721
H      5.070003    0.000414   -0.970358
H      3.518342   -0.673059   -1.605812
H      3.850869   -0.572327    0.165083
H     -2.263719    3.523342   -3.289090
H      2.128634    0.782341   -2.553093
H     -5.402509   -2.483703    1.607149
H     -0.151268    1.092784    5.336980
H     -7.114191   -0.980844    0.594884
H      1.729556    2.602880    5.887719
H     -3.081729   -2.024855    1.355400
H     -0.400984    0.200767    3.137831
H     -6.288258    0.964921   -0.714801
H      3.334822    3.159453    4.115147
H     -2.697016   -1.583422   -2.369449
H      2.618790   -1.574724    2.787680
H     -1.253484   -0.913723    1.295916
H      0.885060   -0.241730   -0.803233
H     -4.109327    2.309740   -1.582689
H      3.918870    2.712806    1.478740
H      0.712636   -1.648420   -4.314949
H     -0.672510   -2.664685    4.239147
H     -1.639416   -4.665895    0.819745
H      2.756989   -3.472030   -1.375193
