78

C     -6.806566    2.114606    1.722778
C     -6.357334   -0.131293    2.619436
C      5.310866    2.407057    2.136170
C      6.980400    0.664027    2.416964
C     -0.994274   -0.204826   -4.229996
C      1.407352   -3.910579   -0.573976
C     -1.640621   -1.419331   -4.256170
C      2.158768   -3.803037   -1.719378
C     -0.634518    0.387670   -3.039437
C      0.891949   -2.791658    0.036534
C     -1.946686   -2.077504   -3.092914
C      2.410916   -2.570537   -2.279008
C     -1.166677    1.466041   -0.126830
C      1.037560   -0.000991    1.368630
C     -5.736590    1.068861    1.926964
C      6.089006    1.371454    1.386552
C     -0.938359   -0.268438   -1.860511
C      1.126901   -1.549438   -0.499633
C     -1.589376   -1.489720   -1.898923
C      1.882853   -1.458070   -1.648404
C     -2.548980    1.333452    0.432045
C      2.480721    0.433989    1.397794
C     -5.262266    0.595734    0.567253
C      5.242164    0.305493    0.757488
C     -3.588129    2.020946   -0.353427
C      3.367670   -0.541568    2.021087
C     -4.191163   -0.451553    0.724564
C      4.276507    0.838828   -0.215163
C     -1.645793   -0.836708    0.298620
C      1.703235    0.669953   -0.816455
C     -0.696252    0.085903   -0.437673
C      0.720417   -0.182662   -0.093621
N     -1.816077   -1.986487   -0.574116
N      1.999797   -0.074652   -2.005406
N     -4.807315    1.667596   -0.273637
N      4.609243   -0.579935    1.716333
N     -2.850600   -0.099110    0.496069
N      2.882832    0.664687    0.031209
O     -3.245025    3.068108   -1.194026
O      2.824724   -1.436732    2.963307
O     -4.534412   -1.605876    1.055201
O      4.685256    1.431179   -1.234015
H     -6.996193    2.281489    0.642527
H     -7.768457    1.819085    2.222704
H     -6.510853    3.088750    2.210909
H     -6.902574   -0.719554    1.830516
H     -7.112702    0.154959    3.358846
H     -5.594652   -0.819820    3.022156
H      4.717448    1.953513    2.959390
H      4.683417    3.028125    1.468576
H      6.042135    3.090621    2.614570
H      7.271778   -0.296331    1.972151
H      7.848524    1.339268    2.612853
H      6.345505    0.550662    3.319844
H     -0.748357    0.323522   -5.152326
H      1.224034   -4.917633   -0.150526
H     -1.924852   -1.888568   -5.185066
H      2.561315   -4.712273   -2.191348
H     -0.125966    1.357701   -3.055803
H      0.307992   -2.925275    0.945611
H     -2.463083   -3.049023   -3.098045
H      3.006557   -2.539324   -3.178777
H     -0.477302    2.039018    0.521446
H     -1.245598    2.033086   -1.089749
H      0.443560    0.769971    1.864491
H      0.876202   -0.954398    1.931121
H     -4.927444    1.445170    2.553761
H      6.693922    1.870420    0.617829
H     -2.636980    1.705055    1.473885
H      2.598815    1.425174    1.913841
H     -6.110044    0.093606    0.057671
H      5.946291   -0.353932    0.169658
H     -1.288838   -1.190102    1.261680
H      1.346510    1.697251   -1.014476
H     -2.050140   -2.940168   -0.266033
H      2.251376    0.285764   -2.942276
H     -3.893566    3.795218   -1.468609
H      3.520093   -1.965905    3.500839
