47

C     -3.552913   -2.416805    1.100996
C     -4.834104   -1.288628   -0.696980
C      3.935392   -1.840509   -0.734417
C      3.974586   -2.376449    1.699618
C      1.646625    4.232425   -0.850188
C     -0.797082    3.718596   -1.205044
C     -1.876047    2.851505   -1.139132
C     -2.751794    0.570238   -0.660343
C      1.838407    1.232871    0.196057
C     -3.482462   -1.755800   -0.263836
C      3.511385   -1.400415    0.646444
C      0.473379    3.305899   -0.781776
C     -1.703344    1.551966   -0.646253
C     -2.468847   -0.674495   -0.289197
C      0.663143    2.050185   -0.299180
C      1.301918   -0.210603   -0.052124
C     -0.450386    1.226308   -0.251816
C      2.062068   -1.190296    0.759232
C     -1.081894   -1.056036    0.065022
C     -0.100163   -0.060735    0.425133
O      1.432091   -1.852873    1.562937
O     -0.783448   -2.270226    0.043320
O     -0.131286    0.251367    1.801841
H     -2.631714   -2.995454    1.318271
H     -3.821848   -1.713938    1.894370
H     -4.366901   -3.191213    1.014450
H     -5.474357   -2.196992   -0.838521
H     -5.294084   -0.609538    0.046914
H     -4.720494   -0.798661   -1.686640
H      4.584531   -2.741391   -0.646350
H      4.543237   -1.081779   -1.266839
H      3.052983   -2.154724   -1.341904
H      4.191260   -1.812282    2.630046
H      4.864328   -2.952247    1.365614
H      3.121008   -3.049518    1.928322
H      2.478406    3.793549   -1.431498
H      2.007044    4.334196    0.201525
H      1.362580    5.232468   -1.189403
H     -0.943343    4.721205   -1.587444
H     -2.875957    3.116732   -1.452133
H     -3.748026    0.845062   -0.967557
H      1.884304    1.366392    1.272300
H      2.747511    1.423071   -0.371055
H     -3.142048   -2.542220   -0.985592
H      4.025469   -0.411470    0.821267
H      1.356910   -0.399653   -1.119002
H     -0.026025    1.220914    1.960550
