22

C      2.540227    0.471518   -0.041717
C      0.479265   -0.403251   -1.061937
C     -0.813001    1.677271    0.543862
C     -0.390004   -1.417381   -0.382827
C     -1.507194    0.368891    0.647695
C     -0.568652   -0.774814    0.999355
C     -1.785532   -1.325781   -0.894649
C      1.048637    0.370521    0.103685
O     -2.462372   -2.206904   -1.487348
O      0.495590    1.627035    0.155850
O     -2.160011   -0.021068   -0.555582
O      0.712365   -0.335954    1.257631
H      2.851536    0.613359   -1.094778
H      3.031840   -0.448950    0.385682
H      2.918354    1.318689    0.575791
H     -0.168538    0.279331   -1.670977
H      1.237677   -0.822384   -1.728389
H     -1.347321    2.376110   -0.137707
H     -0.838204    2.165790    1.561106
H      0.004246   -2.419702   -0.336155
H     -2.299597    0.374642    1.433249
H     -0.979313   -1.466968    1.728161
