53

C      2.301249    4.545378    1.039762
C      4.095935   -2.855121   -1.600318
C     -4.933836   -3.005628   -1.206785
C      4.249301   -1.861149   -2.516043
C     -4.069586   -3.580862   -0.300790
C      3.291804   -2.642615   -0.501299
C     -4.761488   -1.687017   -1.539593
C      3.591074   -0.656609   -2.319890
C     -3.044032   -2.873954    0.276526
C      1.270926   -1.576081    1.930532
C     -0.687578    2.414129   -0.646655
C      1.125803   -0.437645    2.940739
C     -2.205941    2.445017   -0.970650
C      2.627353   -1.442298   -0.292627
C      1.786609   -0.946457    0.669945
C     -3.729953   -0.976498   -0.958734
C     -0.756691    1.551038    0.557385
C      2.783911   -0.423680   -1.230125
C     -2.854537   -1.533928   -0.050062
C      1.427955    0.355112    0.334776
C     -1.687894    0.492561    0.169202
C     -3.556918    0.363854   -1.299108
C      1.188023    2.427083    1.613711
C      0.526400    1.137728    1.189959
N      0.159510    0.468383    2.420365
N      2.042726    0.645283   -0.813351
N     -1.860569   -0.816743    0.498287
N     -2.548523    1.022529   -0.718493
O     -4.348642    0.879055   -2.125070
O      1.303585    2.696731    2.825426
O      1.681076    3.339654    0.704645
H      3.412930    4.388200    1.071324
H      1.907756    4.966160    1.975102
H      2.152605    5.307632    0.227084
H      4.612772   -3.791629   -1.760700
H     -5.738683   -3.607109   -1.643112
H      4.883039   -2.009400   -3.395305
H     -4.210309   -4.645389   -0.033400
H      3.157230   -3.421755    0.238708
H     -5.410925   -1.194085   -2.242128
H      3.743239    0.103353   -3.074039
H     -2.357398   -3.317490    0.991496
H      0.283298   -2.031250    1.815283
H      1.999905   -2.284027    2.361159
H     -0.309185    3.423178   -0.505894
H     -0.273737    1.902785   -1.557402
H      2.088865    0.046249    3.145125
H      0.721667   -0.885938    3.854062
H     -2.374359    2.722082   -2.015474
H     -2.655485    3.094974   -0.214433
H     -1.294550    2.157533    1.345653
H     -0.788191    0.094405    2.395026
H      2.042467    1.514271   -1.395488
