78

C      6.734083    1.257127   -0.148104
C      5.736984    0.763183    2.054155
C     -4.286540    3.453778    2.759093
C     -5.572936    2.173060    1.118623
C      1.883152   -4.028914    0.604914
C     -0.835419   -2.082001   -4.630642
C      2.037609   -3.716200    1.939092
C     -2.082067   -1.641063   -5.009014
C      1.370457   -3.090338   -0.265297
C     -0.366968   -1.893321   -3.353406
C      1.673811   -2.469882    2.367218
C     -2.843800   -1.002627   -4.061396
C      1.183013   -0.065484   -1.686965
C     -1.761689   -1.776111   -0.013726
C      5.486374    0.821026    0.568532
C     -4.844661    2.096613    2.442615
C      0.992019   -1.821392    0.129851
C     -1.108632   -1.258377   -2.382920
C      1.158798   -1.529382    1.489167
C     -2.359964   -0.816516   -2.772396
C      1.823743    1.234467   -1.240310
C     -2.354655   -0.891037    1.007110
C      4.333458    1.733431    0.198833
C     -3.775657    1.025803    2.417121
C      3.106912    1.496957   -1.868821
C     -3.811835   -1.130930    1.288455
C      3.085806    1.362479    0.864894
C     -2.803757    1.452851    1.339978
C      0.598436    0.430632    0.483049
C     -1.839811    0.350377   -0.889999
C      0.435923   -0.659837   -0.549616
C     -0.973244   -0.901005   -0.963142
N      0.732366   -0.193813    1.770048
N     -2.987760   -0.149706   -1.686166
N      4.167448    1.707562   -1.207766
N     -4.425607   -0.207943    1.948237
N      1.900175    1.008765    0.185106
N     -2.328273    0.465174    0.433513
O      3.190264    1.521330   -3.254393
O     -4.446491   -2.286199    0.855461
O      3.054916    1.354383    2.138326
O     -2.412121    2.622501    1.220939
H      7.659810    0.868834    0.362543
H      6.752117    0.927564   -1.214173
H      6.827917    2.368952   -0.093950
H      4.996623    0.141505    2.589408
H      5.853614    1.767592    2.496084
H      6.733321    0.246852    2.171491
H     -5.012629    4.000418    3.405145
H     -3.355377    3.347320    3.367456
H     -4.135184    4.093350    1.868092
H     -6.647969    2.477291    1.274510
H     -5.607866    1.204342    0.586782
H     -5.145298    2.992785    0.473212
H      2.167821   -5.020491    0.241409
H     -0.217272   -2.589974   -5.370274
H      2.445465   -4.487576    2.583988
H     -2.457047   -1.785518   -6.007758
H      1.275576   -3.415703   -1.316671
H      0.600731   -2.244647   -3.136991
H      1.797200   -2.225047    3.426078
H     -3.846608   -0.640040   -4.337786
H      0.521827    0.238802   -2.541037
H      2.041900   -0.694502   -2.032222
H     -2.534742   -2.349749   -0.601021
H     -1.048000   -2.507281    0.447897
H      5.261426   -0.220487    0.227926
H     -5.583612    1.827011    3.223393
H      1.120548    2.092654   -1.359922
H     -1.883359   -0.943114    2.002981
H      4.633679    2.771331    0.514582
H     -3.301456    0.915407    3.390755
H     -0.104303    1.245772    0.407300
H     -1.398955    1.226183   -1.347311
H      0.555196    0.243661    2.675143
H     -3.997510   -0.063631   -1.535418
H      3.902553    2.027849   -3.769539
H     -5.333999   -2.557136    1.287645
