78

C     -6.011836    2.922335   -1.641124
C     -4.102865    4.027082   -0.599753
C      5.407101    2.812135   -1.258777
C      6.465390    2.314613    0.932055
C     -0.400517   -4.570030    2.755428
C      2.020064   -2.909500   -2.825549
C     -1.558877   -4.423187    3.487170
C      1.886760   -1.946009   -3.800795
C     -0.031672   -3.707975    1.752899
C      1.630454   -2.729980   -1.525116
C     -2.386364   -3.364188    3.203054
C      1.324083   -0.759989   -3.379775
C     -1.706799   -1.823567   -0.684198
C      1.431818   -1.148657    1.347825
C     -4.882330    2.729904   -0.645160
C      5.413529    1.873619   -0.089205
C     -0.871562   -2.634304    1.463658
C      1.068829   -1.536980   -1.122888
C     -2.036345   -2.479886    2.196207
C      0.923906   -0.553350   -2.077953
C     -2.447748   -0.602418   -1.024349
C      1.937543    0.228434    1.632150
C     -3.948937    1.634785   -1.048200
C      4.086210    1.902724    0.639583
C     -3.952766   -0.769399   -1.105909
C      3.257408    0.282788    2.240021
C     -2.889990    1.540366   -0.001454
C      2.965908    1.499968   -0.259627
C     -1.656929   -0.479557    1.180322
C      0.513542    0.464431   -0.101608
C     -0.818455   -1.557946    0.483727
C      0.549853   -1.036197    0.155953
N     -2.728910   -1.316442    1.773368
N      0.343078    0.632971   -1.501769
N     -4.614996    0.349583   -1.112978
N      4.173922    1.035674    1.768278
N     -2.317875    0.265529    0.170616
N      1.889632    0.817313    0.306870
O     -4.538486   -2.012915   -1.166128
O      3.544103   -0.485397    3.346961
O     -2.492077    2.489043    0.708676
O      2.963894    1.749466   -1.471504
H     -6.487752    1.976662   -1.920320
H     -6.739499    3.617414   -1.131664
H     -5.573146    3.475441   -2.507607
H     -3.186371    3.920645   -1.215596
H     -3.887995    4.343310    0.442414
H     -4.714447    4.870293   -1.030932
H      5.503158    2.236795   -2.192098
H      4.534783    3.484781   -1.225246
H      6.317923    3.470433   -1.192010
H      6.578659    3.436451    0.888467
H      6.115891    2.041961    1.952827
H      7.442371    1.835497    0.747009
H      0.239103   -5.425900    3.007441
H      2.463673   -3.874636   -3.108632
H     -1.826491   -5.126906    4.280045
H      2.201761   -2.106777   -4.828980
H      0.886976   -3.863080    1.222105
H      1.777334   -3.551004   -0.793910
H     -3.313824   -3.226123    3.771035
H      1.187959    0.054878   -4.114173
H     -1.189466   -2.314527   -1.533741
H     -2.463480   -2.599927   -0.355633
H      0.925593   -1.505920    2.267952
H      2.335280   -1.789089    1.126630
H     -5.287092    2.476256    0.366077
H      5.674466    0.833281   -0.356355
H     -2.202193   -0.084379   -1.951897
H      1.198640    0.833725    2.231818
H     -3.498871    1.885210   -2.032053
H      3.891880    2.971586    0.907674
H     -1.146827    0.047063    1.967303
H     -0.113738    1.037006    0.561378
H     -3.731564   -1.140952    1.874834
H     -0.094174    1.420865   -1.986993
H     -5.554196   -2.095889   -1.216220
H      4.334986   -0.289337    3.978050
