37

C     -3.292812    1.151479    0.477630
C     -3.278468   -1.092262   -0.530949
C     -2.731603   -1.729990    0.687508
C     -0.449963   -3.032606    0.227578
C      0.838435   -2.536823    0.126567
C      2.445015    2.174847    0.200875
C      0.051630    1.724701    0.029657
C      4.098517    0.516379    0.476578
C     -2.935479    0.341836   -0.763789
C      1.441821    1.221237    0.189144
C      3.776416    1.851133    0.342576
C     -1.255247   -1.949286    0.470649
C      3.101590   -0.438792    0.465489
C      0.738318   -1.174602    0.315302
C     -0.577555    1.224729   -1.250435
C      1.748624   -0.115867    0.321926
O      4.769276    2.818467    0.352310
O      3.487678   -1.762765    0.604248
O      0.197017    1.457320   -2.247663
O     -1.732908    0.665431   -1.190082
O     -0.524938   -0.893644    0.513649
H     -4.396994    1.131235    0.577302
H     -2.772276    0.804932    1.380487
H     -2.936374    2.208663    0.306842
H     -2.951960   -1.662053   -1.431200
H     -4.393059   -1.193036   -0.502017
H     -2.876904   -1.203864    1.626904
H     -3.242736   -2.723634    0.812241
H     -0.811640   -4.036065    0.144313
H      1.717066   -3.131399   -0.062661
H      2.198689    3.235987    0.095193
H      0.014125    2.834884    0.067093
H     -0.501897    1.393704    0.925489
H      5.147424    0.213680    0.592023
H     -3.708239    0.695626   -1.522996
H      5.171350    3.060193   -0.557817
H      4.428060   -2.049775    0.708997
