27

C      3.581376    0.878068    0.963685
C      4.467895   -0.804756   -0.542978
C     -2.167763    1.144409   -0.750608
C     -0.424032   -0.397802   -0.209197
C     -3.959411   -0.215075    1.171711
C      3.298202   -0.069317    0.109808
C      0.760945    0.083808    0.231498
C     -2.714529   -0.834093    0.622241
C      1.996913   -0.473639   -0.262080
C     -1.689355    0.177331    0.300104
Br    -3.174668   -1.855991   -0.965319
Cl    -4.779841    0.900632    0.086773
Cl     0.579262    1.371740    1.388861
Cl    -1.396896    1.112485    1.801211
O      1.938270   -1.440016   -1.131654
H      2.914646    1.502993    1.520742
H      4.670752    1.063068    1.137921
H      5.322293   -0.112916   -0.541078
H      4.634644   -1.679162    0.126823
H      4.150668   -1.089724   -1.548240
H     -1.275386    1.456298   -1.371920
H     -2.860064    0.631261   -1.443652
H     -2.655542    2.052967   -0.333037
H     -0.430656   -1.192034   -0.923624
H     -4.697022   -0.986885    1.512436
H     -3.751692    0.360923    2.125350
H     -2.339010   -1.584572    1.374656
