60

C     -6.316666    0.584213   -2.300008
C     -6.135312    2.543186   -0.945427
C      4.711400    1.314780    0.348616
C     -1.268657   -3.008800    0.509656
C     -1.267926   -4.011467   -0.430992
C      3.371535    1.577094    0.026262
C     -5.399699    0.995106    1.272272
C      6.468046   -0.011348    1.569087
C     -6.070845    0.374372    0.070666
C      7.556731    0.586295    1.174643
C      4.056951   -0.450495    1.728130
C     -0.127802   -1.557031   -0.951519
C     -3.128650   -0.101678    1.426056
C     -1.868037    1.391206    0.495543
C      5.105343    0.311476    1.195221
C     -0.700042   -1.749923    0.282783
C     -3.917089    0.958501    1.042207
C     -0.693671   -3.806219   -1.658406
C     -0.125137   -2.578046   -1.914075
C      2.378573    0.791834    0.582552
C      2.730936   -0.221149    1.433677
C     -0.743986   -0.726243    1.333986
C      0.504048    0.046859    1.552111
N     -3.137409    1.867631    0.473518
N     -5.716935    1.154923   -1.101204
N     -1.868362    0.182082    1.081336
O     -0.701956   -4.832877   -2.599251
O      0.456758   -2.364833   -3.153061
O      9.886713    1.536839   -1.050230
O      7.700248    0.459032   -2.036270
O      7.900315    2.863360   -2.003911
O      7.506060    1.644642    0.313040
O      0.991534    0.780223    0.478691
O      1.560100   -0.875934    1.869727
S      8.221580    1.619756   -1.240248
Na     0.000000    0.000000    0.000000
H     -5.590125    0.705158   -3.129136
H     -6.554121   -0.504748   -2.157302
H     -7.207312    1.181493   -2.543031
H     -6.856733    2.681919   -0.118189
H     -6.607777    2.845962   -1.911069
H     -5.245437    3.170556   -0.803496
H      5.454627    1.945466   -0.102785
H     -1.721305   -3.168779    1.478383
H     -1.713386   -4.990083   -0.246307
H      3.123078    2.384199   -0.649083
H     -5.603289    0.427594    2.197849
H     -5.731723    2.027316    1.443461
H      6.597760   -0.860896    2.267785
H     -7.169333    0.296428    0.199407
H     -5.713229   -0.657049   -0.119651
H      8.548073    0.260338    1.520435
H      4.305256   -1.264348    2.408977
H      0.332875   -0.608172   -1.211524
H     -3.466461   -1.023314    1.927942
H     -0.981142    1.910357    0.097807
H     -1.014951   -1.252841    2.301089
H      0.377337    0.768022    2.405636
H      0.463752   -3.091992   -3.851915
H     10.054877    0.934788   -0.280462
