60

C     -6.434976    3.472930    0.334904
C     -7.080253    1.154028    0.460546
C      4.536045    0.451531    0.819141
C     -0.753514   -3.294958    1.098961
C     -0.772707   -4.670451    1.127454
C      3.709440   -0.557812    1.317152
C     -4.765026    0.408509   -0.930143
C      4.678210    2.789684   -0.042408
C     -4.915933    1.819457   -0.351192
C      5.968210    2.801150   -0.259044
C      2.592840    1.828337    0.645701
C      0.509139   -3.338459   -0.942873
C     -2.472597   -0.487083   -0.146914
C     -1.281746   -0.075846   -1.890577
C      3.969909    1.646945    0.483902
C     -0.125343   -2.636782    0.084440
C     -3.317508    0.099601   -1.064799
C     -0.143551   -5.353497    0.108814
C      0.496179   -4.698212   -0.924450
C      2.339647   -0.356864    1.470811
C      1.779800    0.853649    1.128984
C     -0.092747   -1.160323    0.036008
C      0.080894   -0.635230    1.433027
N     -2.529734    0.345194   -2.153379
N     -6.305848    2.154755   -0.206008
N     -1.230490   -0.592718   -0.654227
O     -0.128572   -6.753896    0.082011
O      1.120046   -5.412765   -1.934617
O      9.177688    2.521958   -1.165785
O      9.048879    0.540094    0.473715
O      8.780902    2.841239    1.367206
O      6.817348    1.745696   -0.020609
O      1.301652   -1.152779    1.927632
O      0.408473    0.766450    1.385626
S      8.474080    1.915930    0.247657
Na     0.000000    0.000000    0.000000
H     -7.158275    4.081683   -0.275241
H     -6.719764    3.478826    1.412007
H     -5.457652    4.000616    0.272384
H     -7.983176    1.634269    0.901693
H     -6.556727    0.655240    1.297650
H     -7.473520    0.401722   -0.269200
H      5.574880    0.261137    0.716232
H     -1.246304   -2.776515    1.895727
H     -1.252680   -5.243456    1.902551
H      4.152073   -1.497575    1.581101
H     -5.281742   -0.268794   -0.243465
H     -5.278443    0.355754   -1.901401
H      4.135568    3.725174   -0.288340
H     -4.317069    1.940757    0.556066
H     -4.492709    2.506199   -1.124283
H      6.439798    3.713730   -0.663856
H      2.114431    2.780170    0.383325
H      0.989477   -2.771226   -1.718547
H     -2.822203   -0.802471    0.842502
H     -0.444913   -0.012618   -2.562042
H      0.818522   -0.830298   -0.541367
H     -0.775869   -0.813124    2.094357
H      1.102237   -6.417302   -1.907653
H      8.495227    2.918638   -1.734336
