64

C      8.477648   -0.523021   -1.431070
C     -6.645113   -0.796644   -2.632057
C     -7.333851   -2.075121   -0.656731
C      6.688984    0.857607    0.339910
C      3.648873    0.482248    2.361450
C      5.284872   -3.081726    1.805890
C      7.048176   -0.266799   -1.796567
C     -0.620242    0.625150    0.812257
C     -1.471749    1.545020    1.198510
C      0.772845    0.598112    1.332143
C     -2.859994    1.617821    0.716159
C      1.620368   -0.318808    0.946689
C     -3.692205    2.530223    1.104127
C      6.116987   -1.569853    0.108798
C      3.781122   -1.424198    0.921113
C     -7.635307   -0.855449   -1.512024
C      6.194664   -0.234160   -0.547270
C      3.002548   -0.438460    1.390588
C      5.194737   -1.629817    1.306083
C     -5.043059    2.678506    0.695110
C     -6.185892    0.477034    0.032042
C     -6.767505    2.404516   -1.148716
C     -5.731518    1.803932   -0.254100
C     -7.544564    0.351202   -0.599332
N     -7.716370    1.584701   -1.300445
O     -5.702722    3.671483    1.213067
O     -6.646227    3.691192   -1.705340
O     -8.521111    0.303934    0.397295
O     -5.097558    0.713410   -0.859192
H      9.103256    0.362350   -1.715733
H      8.652811   -0.705474   -0.366031
H      8.817999   -1.419769   -2.002629
H     -6.376049    0.252437   -2.887929
H     -5.720140   -1.386800   -2.379133
H     -7.083761   -1.243495   -3.531462
H     -7.632604   -1.863946    0.399180
H     -6.247237   -2.271195   -0.635609
H     -7.916618   -2.943554   -1.056423
H      6.148790    1.835061    0.184066
H      7.750727    1.064983    0.094233
H      6.678637    0.584516    1.420402
H      4.148756   -0.059947    3.196916
H      4.286917    1.239542    1.878839
H      2.847168    1.072840    2.874608
H      6.226422   -3.260885    2.351521
H      5.278207   -3.763950    0.915954
H      4.389948   -3.295184    2.420518
H      6.945839    0.733210   -2.296855
H      6.630226   -1.053488   -2.461407
H     -0.952299   -0.117215    0.104741
H     -1.127980    2.284827    1.908567
H      1.097231    1.346255    2.038083
H     -3.145208    0.864739    0.018504
H      1.248915   -1.045893    0.235518
H     -3.274942    3.256576    1.832325
H      5.734438   -2.302414   -0.653361
H      7.137703   -1.924766    0.355566
H      3.283957   -2.096031    0.205345
H     -8.660654   -0.877862   -1.931006
H      5.169245    0.073225   -0.892184
H      5.542948   -1.010223    2.139508
H     -5.955545   -0.102844    0.947859
H     -7.417647    4.122834   -2.171473
H     -8.226294    0.929504    1.109006
