64

C    -10.431352   -0.490028   -0.041018
C     10.090041    1.136274    1.545609
C     10.429396   -0.669249   -0.028152
C     -8.107302    1.166220    0.866926
C     -3.439452    0.424822    1.258010
C     -6.183488   -2.061257    0.710923
C     -8.975712   -0.961359   -0.178925
C      0.356287   -0.241242   -0.940368
C      1.502249    0.255543   -0.530370
C     -0.910433   -0.033133   -0.228439
C      2.707717   -0.005274   -1.304596
C     -2.039046   -0.537937   -0.656604
C      3.896893    0.462092   -0.953205
C     -6.690308   -0.088214   -0.776727
C     -4.430456   -0.890217   -0.460521
C      9.673595    0.631871    0.173370
C     -8.054177    0.239300   -0.309282
C     -3.312473   -0.351246    0.024323
C     -5.766403   -0.747513    0.170919
C      5.121062    0.215531   -1.711096
C      7.579333   -0.177055   -0.966454
C      6.428694    1.615979   -0.232884
C      6.460190    0.748770   -1.310200
C      8.217469    0.317479    0.206170
N      7.362265    1.393449    0.582140
O      4.940412   -0.491077   -2.735313
O      5.509305    2.680743    0.047392
O      8.088059   -0.612682    1.284073
O      7.388515    0.294723   -2.198339
H    -10.666790   -0.197798    0.991237
H    -10.623419    0.300116   -0.789081
H    -11.107867   -1.333211   -0.297609
H      9.933381    0.283973    2.247734
H     11.180015    1.349346    1.560088
H      9.519889    2.015414    1.862075
H      9.765402   -1.361837   -0.573553
H     11.314424   -0.511918   -0.681047
H     10.716237   -1.124781    0.948454
H     -8.794023    2.027679    0.730214
H     -7.100239    1.627240    1.067078
H     -8.479380    0.649511    1.799969
H     -4.123058    1.312067    1.108901
H     -2.523919    0.837028    1.679617
H     -3.868679   -0.241130    2.048840
H     -6.780628   -2.687503   -0.010950
H     -6.665436   -2.010848    1.712063
H     -5.258531   -2.666841    0.889926
H     -8.931866   -1.497019   -1.143371
H     -8.784697   -1.576655    0.696767
H      0.329785   -0.834829   -1.845584
H      1.509233    0.842544    0.370313
H     -0.877760    0.552309    0.661793
H      2.671442   -0.599751   -2.208225
H     -2.011741   -1.139753   -1.591363
H      3.887228    1.058876   -0.024608
H     -6.799694   -0.762050   -1.677316
H     -6.221634    0.835850   -1.174650
H     -4.323641   -1.470510   -1.385816
H      9.990860    1.293263   -0.631925
H     -8.524100    0.831148   -1.159543
H     -5.627808   -0.057186    1.050860
H      7.332185   -1.298102   -0.949174
H      5.413574    2.984763    0.991098
H      7.120373   -0.654719    1.507261
