72

C      6.729418   -0.693594    1.200865
C      7.157215    0.472878   -0.998277
C     -2.194946   -3.080670   -1.390672
C     -5.855294    0.451577   -2.267642
C     -6.490785    1.302099   -0.144816
C      2.919201    3.094898    0.573956
C      2.704839    1.525190    2.412207
C     -0.849994    0.659413    2.274310
C     -3.287219    1.342251    0.348205
C     -2.476232   -2.230818    0.793969
C     -1.129035   -1.607347    0.736611
C     -4.350968   -1.788613   -0.920414
C     -4.047106    1.034501   -0.638861
C     -1.909650    1.933381    0.477029
C     -5.544578   -1.009339   -0.419718
C      0.282914   -0.562049   -0.911427
C      6.552798   -0.705350   -0.303102
C     -3.226108   -2.279737   -0.542338
C     -0.932309   -0.353723   -0.036102
C      1.560426   -0.074952   -0.397755
C      3.953255   -0.320996   -0.328924
C      5.178060   -1.020562   -0.650234
C      2.770591   -0.805748   -0.750548
C      3.992605    0.936612    0.381978
C      1.576873    1.027161    0.318871
C     -5.428755    0.442736   -0.773186
C      2.797438    1.619241    0.897074
C     -0.863505    0.910564    0.760462
O      5.013248   -2.091719   -1.355375
O      2.730348   -1.979769   -1.504748
O      5.087778    1.561756    0.621247
O      0.333745    1.613924    0.498594
H      5.738058   -0.827971    1.663731
H      7.192122    0.212148    1.599074
H      7.325779   -1.575753    1.566064
H      6.459865    1.053786   -1.634272
H      7.617150    1.140166   -0.239151
H      7.977648    0.113770   -1.675924
H     -1.515636   -3.651871   -0.652019
H     -1.583206   -2.521635   -2.057211
H     -2.629147   -3.934238   -1.927545
H     -4.938944    0.200674   -2.863546
H     -6.217984    1.464923   -2.539775
H     -6.639797   -0.285042   -2.401535
H     -7.471517    0.877646   -0.500920
H     -6.494947    1.206416    0.970021
H     -6.467790    2.338740   -0.496084
H      2.349572    3.695585    1.337100
H      3.981495    3.395501    0.706138
H      2.584329    3.339679   -0.434592
H      3.674185    1.849161    2.846297
H      2.495728    0.493082    2.731289
H      1.906753    2.217856    2.752082
H     -0.882134    1.707019    2.710410
H     -1.767877    0.183091    2.637881
H      0.093158    0.243912    2.625071
H     -3.531308    1.176555    1.468679
H     -2.961746   -1.883085    1.684761
H     -2.331249   -3.331680    1.114616
H     -0.786207   -1.367210    1.791805
H     -0.404878   -2.410583    0.461480
H     -4.762844   -1.814575   -2.032991
H     -3.795261    1.131854   -1.753789
H     -1.860145    2.600911    1.415808
H     -1.566391    2.626198   -0.289389
H     -5.803455   -1.060986    0.638076
H     -6.516229   -1.436370   -0.856475
H      0.138346   -0.121382   -1.936942
H      0.430544   -1.665246   -1.131722
H      7.184314   -1.599606   -0.633217
H     -1.774594   -0.212389   -0.753018
H      2.799967   -2.892245   -1.033069
