42

C      3.468885    0.669256   -0.616176
C      3.717965   -0.469415    0.032111
C     -2.330565   -2.394743    0.162270
C     -0.964416   -2.727079   -0.324508
C      2.484883    1.585308    0.070076
C      2.973313   -0.630523    1.325779
C     -2.835239   -1.061800   -0.276834
C     -0.361824    2.212252   -0.711772
C      0.866846   -1.556762    0.758081
C     -2.449979    1.213571    0.035285
C     -0.032894   -1.563043   -0.437947
C     -1.482622    2.317092    0.321287
C      0.292709    0.836349   -0.664916
C      1.235607    0.824697    0.490262
C     -0.706336   -0.253061   -0.695569
N      1.584029   -0.402807    1.030258
N     -1.837645   -0.074137    0.169812
O     -2.128357    3.525480    0.107979
H      3.936081    0.905394   -1.550372
H      4.404783   -1.209626   -0.355383
H     -3.055455   -3.173237   -0.208688
H     -2.419859   -2.436763    1.283990
H     -1.072595   -3.279367   -1.301626
H     -0.546043   -3.505059    0.378108
H      2.990211    2.049029    0.967000
H      2.272058    2.385563   -0.644842
H      3.098197   -1.617021    1.770131
H      3.354789    0.203091    1.981836
H     -3.820619   -0.873099    0.144975
H     -2.804629   -1.033329   -1.389113
H      0.338721    3.017952   -0.501733
H     -0.860126    2.291762   -1.705835
H      0.237628   -1.842911    1.645560
H      1.580672   -2.422985    0.634424
H     -3.365992    1.244181    0.646090
H     -2.764242    1.325586   -1.041829
H      0.619178   -1.762927   -1.335141
H     -1.127533    2.219453    1.345854
H      0.911027    0.778715   -1.605962
H      0.767522    1.466519    1.294371
H     -1.119387   -0.306655   -1.746617
H     -3.048744    3.525095    0.519322
