41

C     -3.771078    2.014785    0.814923
C      5.372337   -0.327231    0.698205
C      4.549128   -1.405513    0.716484
C     -2.618539   -1.467025    0.942760
C     -2.183905   -1.316916   -0.493689
C      3.501864    1.048872    0.207702
C      0.128926   -0.738310   -0.116127
C     -3.039831    0.936204    0.728331
C      4.857741    0.916250    0.443151
C      2.619581   -0.031618    0.216564
C     -3.633978   -0.352939    1.178637
C      3.162810   -1.271483    0.476145
C      1.235229    0.241653   -0.054264
C     -1.659001    1.032433    0.192682
C     -1.054633    0.207567   -2.005327
C     -1.196097   -0.141638   -0.554453
O      5.709250    2.022750    0.425833
O     -4.774097   -0.597168    0.428318
O      2.463059   -2.402800    0.523029
O      0.923984    1.455239   -0.264248
O     -1.609176    2.163947   -0.624429
O     -1.573780   -0.490487   -2.916523
O     -0.347229    1.311493   -2.394355
H     -4.774370    1.954271    1.203910
H     -3.428072    3.000349    0.512283
H      6.442434   -0.393358    0.878224
H      4.983626   -2.379872    0.921582
H     -3.159600   -2.416162    1.118268
H     -1.819358   -1.307910    1.675706
H     -3.041494   -1.034366   -1.135067
H     -1.659856   -2.217716   -0.808762
H      3.180099    2.073254    0.014037
H      0.018191   -1.279874    0.827741
H      0.459848   -1.477320   -0.905550
H     -3.910279   -0.285290    2.249723
H     -0.980989    1.265279    1.047465
H      5.896274    2.561566    1.270712
H     -4.703459   -1.484677    0.011778
H      1.649281   -2.848001    0.457959
H     -2.474429    2.194262   -1.119872
H      0.259588    1.267498   -3.223765
