41

C      5.206126   -0.290901    1.120940
C      4.976384   -1.108393    0.043280
C     -2.514076   -1.602094    0.496028
C     -1.458515   -1.484257   -0.570686
C      2.900071    0.317307    1.101065
C      0.192081    0.234945    0.101592
C     -1.958481    2.045807    0.443114
C     -3.191315    0.754361   -1.262342
C      4.153742    0.421029    1.644010
C      2.641668   -0.510339    0.001423
C      3.680338   -1.217474   -0.520316
C      1.297890   -0.580364   -0.530370
C     -2.895051   -0.219572    0.941793
C     -1.037592    0.489045   -2.014989
C     -1.070569   -0.051133   -0.629553
C     -2.265570    0.679842   -0.068849
O     -3.190695    2.626186    0.813751
O      4.381845    1.243502    2.727210
O      3.595047   -2.065845   -1.587940
O      1.059100   -1.317109   -1.512387
O     -4.289547   -0.133950    0.923591
O     -0.039979    0.711888   -2.724842
O     -2.347108    0.711370   -2.397952
H      6.211764   -0.211449    1.551811
H      5.806553   -1.666419   -0.364898
H     -2.175575   -2.180467    1.372998
H     -3.400847   -2.163601    0.086275
H     -1.869568   -1.826709   -1.564281
H     -0.644771   -2.184549   -0.255684
H      2.055824    0.871792    1.500208
H      0.496183    1.282168    0.046573
H      0.076717   -0.027510    1.167414
H     -1.354326    2.033381    1.371319
H     -1.503050    2.714763   -0.282928
H     -3.821696    1.664200   -1.257339
H     -3.833355   -0.150614   -1.300003
H     -2.584142   -0.010278    1.989572
H     -3.135276    3.594574    0.832741
H      3.698316    1.807948    3.191893
H      2.855758   -2.329689   -2.156671
H     -4.704302   -0.871392    0.412828
