41

C      3.142016   -0.737672   -2.046942
C      3.728549   -0.215659   -0.789948
C     -4.922743    0.637501    0.408986
C     -4.249682    0.669640   -0.784355
C      1.756757   -0.197133   -2.208019
C     -2.902252    0.757598    1.609566
C      0.225697    0.887120   -0.647305
C      3.540542    0.194372    1.581488
C      2.987676   -0.316738    0.304304
C     -4.270482    0.680446    1.616745
C     -2.169946    0.792791    0.398621
C     -2.845929    0.749021   -0.792082
C     -0.715945    0.863896    0.480401
C      1.664927   -0.939363    0.169834
C     -0.113141   -1.494423   -1.337486
C      0.857270   -0.433985   -1.006576
O      2.775428    1.198848    2.148782
O     -4.947955    0.648483    2.834473
O     -2.176487    0.782644   -1.996323
O     -0.252142    0.909745    1.692692
O      1.901680   -2.332590    0.025284
O     -0.109526   -2.046669   -2.477150
O     -1.075375   -1.952127   -0.447379
H      3.732635   -0.462264   -2.933165
H      3.117009   -1.862124   -2.040382
H      4.712661    0.214920   -0.819712
H     -5.997963    0.576934    0.434155
H     -4.744215    0.636925   -1.751314
H      1.306065   -0.682445   -3.102226
H      1.829931    0.881213   -2.447795
H     -2.381037    0.791938    2.569916
H     -0.197958    1.412213   -1.513166
H      1.104250    1.539257   -0.251219
H      4.558151    0.608969    1.445797
H      3.581747   -0.695233    2.273443
H      1.083871   -0.755659    1.080090
H      3.151050    2.111240    1.973397
H     -4.469092    0.679604    3.721865
H     -2.598675    0.754502   -2.895005
H      2.336722   -2.592034    0.895602
H     -1.954088   -2.263706   -0.841827
