27

C      2.753607   -1.230473   -0.370668
C      4.174948    0.663381    0.018722
C     -2.453265    0.375212    1.580412
C     -0.405256   -0.284145    0.276995
C     -2.109586   -0.805192   -2.039957
C      2.763725    0.018579   -0.006763
C      0.300201    0.786633    0.507395
C     -2.630472   -0.068710   -0.824092
C      1.718085    0.901590    0.374334
C     -1.886778   -0.389689    0.420680
Br    -2.747896    1.823582   -1.202660
Cl    -3.036575   -0.381984   -3.497838
Cl    -0.603150    2.223221    1.030045
Cl    -2.235490   -2.132389    0.776075
O      2.156537    2.110074    0.676143
H      1.967817   -1.927574   -0.483675
H      3.745672   -1.712882   -0.626228
H      4.471402    0.603515    1.085081
H      4.810459    0.107370   -0.667992
H      4.056057    1.693656   -0.313674
H     -1.758986    0.471948    2.430044
H     -3.338527   -0.228101    1.958716
H     -2.926501    1.340169    1.297750
H      0.107212   -1.165230   -0.045584
H     -2.142611   -1.887854   -1.932858
H     -1.045854   -0.491656   -2.253167
H     -3.704774   -0.413049   -0.732010
