44

C     -2.649385   -3.102355    1.192796
C     -1.270012    4.148654    0.190561
C      5.357004   -0.790872    0.347079
C      4.871658   -0.050438    1.355861
C     -2.793649   -0.766978   -1.405795
C     -1.724002    0.111414   -2.062668
C      3.236990   -0.713960   -0.708550
C      0.526780   -0.007883   -1.006683
C     -4.026502   -1.144488    1.490005
C     -2.886226   -1.844954    0.839570
C      4.540824   -1.127728   -0.693293
C      2.684209    0.062879    0.325400
C      3.532221    0.381960    1.352873
C      1.296200    0.446311    0.210440
C     -2.014725   -1.221572   -0.166655
C     -0.846045    2.001450   -0.855972
C     -0.887877    0.516044   -0.893890
O     -3.652261   -0.019239    2.187371
O      4.997484   -1.895991   -1.766310
O      3.092572    1.135862    2.410581
O      0.734190    1.131127    1.079973
O     -0.341562    2.601295   -1.838863
O     -1.329372    2.733856    0.194419
O     -1.468897   -0.013757    0.251670
H     -1.821139   -3.654328    0.739315
H     -3.274753   -3.619474    1.945333
H     -1.145947    4.469660   -0.863781
H     -2.222825    4.577218    0.553571
H     -0.382175    4.535522    0.737864
H      6.384126   -1.159407    0.285438
H      5.482992    0.233242    2.189399
H     -3.097567   -1.599963   -2.038228
H     -3.644936   -0.123918   -1.065186
H     -1.144667   -0.597182   -2.720964
H     -2.162527    0.944625   -2.624753
H      2.610547   -1.006486   -1.565846
H      0.572390   -1.097737   -1.028321
H      0.999154    0.478796   -1.894517
H     -4.566343   -1.815639    2.187259
H     -4.779004   -0.900122    0.685130
H     -1.219531   -1.915802   -0.498061
H     -3.177620   -0.308318    3.007213
H      5.405461   -1.507740   -2.597311
H      2.204750    1.496414    2.536526
