54

C     -1.497444   -3.538404    0.664504
C     -1.974821    3.502078    0.963351
C     -4.292538    0.619936    1.413512
C     -2.675883   -2.553202    0.709910
C      5.435146   -1.163476    1.179605
C      5.637597   -0.211531    0.239181
C     -0.535175   -1.445618   -1.526659
C      0.301156   -0.262179   -1.856722
C      3.101192   -0.605341    1.190076
C      0.752214    0.948863    0.201116
C     -2.191989    0.735727   -2.076984
C      4.155683   -1.350477    1.648710
C      3.286885    0.372735    0.226494
C      4.564847    0.565525   -0.246016
C      2.167364    1.148011   -0.301255
C     -1.456175   -0.959727   -0.399494
C     -0.375295    2.060716   -1.783026
C     -2.365475    1.303921    0.284295
C     -0.163819    0.899497   -0.941196
C     -1.598880    0.485946   -0.659233
O      3.976736   -2.345881    2.626084
O      4.898898    1.480123   -1.179876
O      2.363721    1.997433   -1.191749
O      0.150789    3.180252   -1.727308
O     -2.264480    2.660371   -0.075196
O     -3.730154    0.930182    0.215223
O     -2.615078   -1.720994   -0.410739
O     -1.333039    1.652662   -2.710689
H     -1.710612   -4.336719    1.411646
H     -1.389670   -3.973999   -0.339202
H     -0.586405   -3.039045    1.024108
H     -1.933230    4.541265    0.516200
H     -2.808327    3.489667    1.737432
H     -1.040747    3.320580    1.481294
H     -5.361370    0.312826    1.187876
H     -4.457960    1.569010    2.019820
H     -3.859041   -0.155336    2.017822
H     -2.523885   -1.995554    1.671410
H     -3.596734   -3.159879    0.745169
H      6.269831   -1.755186    1.542864
H      6.625724   -0.016116   -0.170144
H     -1.155531   -1.777082   -2.379243
H      0.088357   -2.301870   -1.152606
H      0.238175    0.044459   -2.924406
H      1.364247   -0.526008   -1.599322
H      2.141681   -0.791043    1.592856
H      0.667462    0.021743    0.777159
H      0.611149    1.802458    0.900044
H     -3.167607    1.269242   -1.974752
H     -2.285977   -0.180922   -2.652267
H     -0.894048   -1.123886    0.561453
H     -2.115318    1.148675    1.338353
H      4.734423   -2.902537    2.973299
H      4.423428    2.128111   -1.678991
