36

C     -2.763812   -1.322385   -0.986968
C      3.792702   -0.583271    1.175155
C      1.611061    0.127547    0.290616
C      5.152551   -0.658992    1.061966
C      0.825701    0.694543   -0.590531
C      3.706460    0.582547   -0.918103
C     -5.319512    0.732653    0.140840
C     -2.525436    0.142259    1.001413
C     -3.293402   -0.649162    0.020044
C      3.076693    0.042869    0.174111
C      5.841884   -0.137740   -0.007870
C      5.099193    0.481331   -0.991221
C     -4.788791   -0.659144    0.227207
C     -0.612647    0.712539   -0.358411
O     -6.705400    0.664063    0.366871
O      7.237349   -0.227022   -0.103074
O      5.729217    1.033470   -2.106021
O     -5.046592   -1.176518    1.481258
O     -1.404730    1.245579   -1.176862
O     -1.157230    0.139021    0.779234
H     -1.728460   -1.386258   -1.223507
H     -3.437597   -1.871820   -1.650557
H      3.240665   -0.995702    2.022849
H      1.129109   -0.310722    1.172080
H      5.716821   -1.148739    1.844163
H      1.231535    1.141849   -1.474363
H      3.193479    1.087004   -1.736362
H     -4.932595    1.426546    0.886269
H     -5.117970    1.180778   -0.862916
H     -2.684020   -0.378990    1.993666
H     -2.935387    1.168856    1.121193
H     -5.244454   -1.264436   -0.582250
H     -7.027072    1.592893    0.563690
H      7.723086   -0.691068    0.647095
H      6.730691    0.973635   -2.181966
H     -4.313092   -1.708013    1.856938
