48

C     -3.967709    0.926035    1.397660
C     -1.864067    2.720867   -0.995184
C      5.212814    1.820476    0.954965
C      5.365991    0.456712    1.132955
C     -2.134148   -2.662961    0.399489
C     -0.869603   -2.001769    0.909978
C      2.925899    1.503589    0.392312
C      0.641414   -0.211626   -0.028013
C     -1.313408   -0.350072   -2.235520
C      3.993339    2.354579    0.583710
C      3.058973    0.132841    0.565779
C      4.276408   -0.377909    0.934136
C      1.945360   -0.775471    0.368204
C     -2.581038   -1.841785   -0.812136
C     -0.068902   -2.083143   -1.351707
C     -2.269031    0.583519   -0.155821
C     -0.449502   -1.161607   -0.220024
C     -1.718938   -0.613052   -0.795198
O      3.919153    3.731146    0.424959
O      4.490100   -1.740959    1.127786
O      2.165719   -1.988467    0.548407
O     -3.913808   -1.556451   -0.831434
O      0.567224   -3.141076   -1.191315
O     -2.669619    0.510640    1.142339
O     -1.365138    1.659981   -0.246102
O     -0.550431   -1.530113   -2.526238
H     -4.070508    1.991173    1.089753
H     -4.746077    0.340851    0.889880
H     -4.197886    0.925194    2.487759
H     -1.070679    3.495156   -0.992110
H     -2.749582    3.200190   -0.508700
H     -2.062611    2.453412   -2.049079
H      6.058095    2.471418    1.108854
H      6.317190    0.052499    1.421297
H     -2.971184   -2.611070    1.149343
H     -1.933706   -3.710974    0.155351
H     -0.093441   -2.763017    1.165562
H     -1.156605   -1.471733    1.831228
H      1.983277    1.946497    0.102296
H      0.802746    0.405385   -0.933468
H      0.372512    0.520193    0.778008
H     -2.216756   -0.342862   -2.872579
H     -0.666526    0.523333   -2.348068
H     -2.314266   -2.497392   -1.699012
H     -3.155459    0.943764   -0.750661
H      4.096903    4.208015   -0.438415
H      5.369140   -2.125829    1.395380
H     -4.421627   -2.318133   -0.476608
