37

C      1.102800   -1.407664   -0.781450
C     -1.719337   -0.767382   -0.648582
C     -5.359974   -0.476901   -0.526424
C     -0.807093   -0.074106    0.108160
C      0.604825   -0.089836   -0.240839
C      2.618970   -1.383503   -0.913637
C     -3.081864   -0.671667   -0.399895
C     -1.201882    0.752768    1.160882
C      1.558192    0.343031    0.819036
C      3.181103    0.011831   -1.030885
C     -2.549784    0.846829    1.402678
C      2.773586    0.935546    0.098502
C     -3.480216    0.143580    0.632378
C     -0.195622    1.379174    2.010193
N      1.063932    1.186228    1.837686
O      2.917605   -2.038051   -2.108481
O      4.568743   -0.108015   -0.969861
O     -2.956013    1.664582    2.438669
O      3.798798    1.235899    0.958548
O     -0.674068    2.208356    3.031669
O     -4.223023   -1.227070   -0.966273
O     -4.867379    0.075031    0.679569
H      0.862419   -2.192659   -0.038141
H      0.584078   -1.656575   -1.715073
H     -1.430812   -1.413207   -1.463824
H     -6.207150   -1.151618   -0.376842
H     -5.559012    0.341756   -1.251326
H      0.767892    0.637080   -1.106388
H      3.112765   -1.957011   -0.101821
H      1.907272   -0.633368    1.321872
H      2.924874    0.411079   -2.023448
H      2.414959    1.877815   -0.365424
H      2.644891   -2.988711   -2.103082
H      4.773510   -0.270916    0.005692
H     -3.945232    1.738476    2.622060
H      4.090623    2.181111    0.868361
H     -0.013373    2.538090    3.720193
