36

C     -2.942056    1.173045    1.154248
C      3.785799    1.158263   -0.406653
C      1.648587   -0.035518   -0.065029
C      5.158359    1.201393   -0.217440
C      0.892344    0.830714   -0.671901
C      3.787633   -0.891766    0.751295
C     -5.290605   -0.112529   -0.966402
C     -2.467590   -0.793798   -0.264625
C     -3.348240    0.132640    0.479731
C      3.090988    0.088643    0.089257
C      5.843538    0.205964    0.451298
C      5.133017   -0.870424    0.948583
C     -4.805376   -0.163883    0.455995
C     -0.547099    0.632134   -0.783689
O     -6.688573   -0.281277   -0.989148
O      7.208713    0.218152    0.656837
O      5.721375   -1.917518    1.631427
O     -5.120388   -1.412523    0.991024
O     -1.302931    1.446925   -1.361471
O     -1.111414   -0.503244   -0.230218
H     -3.649432    1.801677    1.670011
H     -1.899961    1.415797    1.222364
H      3.295649    1.966376   -0.939271
H      1.135065   -0.909964    0.348935
H      5.742121    2.032372   -0.595862
H      1.303062    1.724837   -1.112978
H      3.205424   -1.743473    1.141665
H     -4.824898   -0.989807   -1.504330
H     -4.970331    0.833734   -1.416016
H     -2.858852   -0.922629   -1.303634
H     -2.607151   -1.809453    0.209500
H     -5.353282    0.603693    1.082675
H     -6.911620   -1.001540   -0.351329
H      7.812005    0.953208    0.335619
H      6.705117   -1.944070    1.799481
H     -4.768997   -2.116150    0.393858
