54

C     -5.699991   -0.997625   -0.962977
C      0.303614   -3.975264    1.142403
C      3.293168    3.321903   -0.937920
C      5.354811    1.925817   -1.053721
C      2.117286   -2.188297    1.755088
C     -5.997881    2.700875    0.118629
C      3.137716   -0.222109   -0.240375
C      3.092449    0.907340   -0.920723
C      2.311221   -1.380837   -0.606986
C     -0.970868    0.993595    1.536219
C     -4.504327   -0.448339   -0.303489
C      0.660918   -3.049429    0.010207
C     -2.111182    0.515938    0.934954
C      0.236546    0.335959    1.470488
C     -2.034628   -0.678114    0.235095
C      0.285685   -0.871158    0.755146
C     -3.239901   -1.166552   -0.390336
C     -3.387989    1.205621    1.001129
C     -4.583260    0.692651    0.363641
C     -0.840980   -1.367630    0.146343
C      3.964242    2.030172   -0.479144
C      1.380282   -1.799651    0.493060
O      1.406971    0.781656    2.060788
O     -3.186035   -2.250775   -1.030178
O     -3.474918    2.300352    1.638187
O      4.015899    1.996475    0.912441
O     -5.808447    1.326245    0.410148
O     -0.589287   -2.561400   -0.504880
H     -5.631585   -0.849272   -2.079274
H     -6.600914   -0.476542   -0.593847
H     -5.822491   -2.088458   -0.799006
H     -0.136764   -3.433140    1.993361
H      1.121563   -4.657959    1.428874
H     -0.515970   -4.645020    0.752075
H      2.716741    3.792832   -0.126941
H      2.608963    3.126441   -1.787089
H      4.101987    4.034268   -1.250025
H      6.042386    2.383638   -0.292440
H      5.452695    2.486384   -1.982231
H      5.619036    0.868409   -1.105657
H      2.589999   -3.181720    1.692419
H      1.353095   -2.168969    2.582821
H      2.891004   -1.467477    2.041323
H     -7.096561    2.892438    0.248463
H     -5.684575    2.973695   -0.901088
H     -5.445717    3.320974    0.874043
H      3.814041   -0.300558    0.627785
H      2.447446    1.022479   -1.771069
H      1.673238   -1.103967   -1.480765
H      2.905097   -2.258079   -0.944301
H     -1.027251    1.932893    2.087899
H      1.229991   -3.595627   -0.741029
H      1.369914    1.651602    2.575663
H      4.893518    1.663311    1.213476
