58

C     -2.131138    6.831610    0.506354
C     -3.751959   -4.190632   -0.231734
C     -3.525230   -3.714807   -1.498304
C     -3.123165   -3.582392    0.861127
C     -2.686859   -2.644039   -1.722305
C      3.477072   -2.027704   -1.628072
C      2.373598   -1.908867    0.413261
C      0.011463    3.252393    0.733143
C     -1.601258    2.150017   -0.599631
C      3.802715   -3.341358   -1.380563
C      2.697551   -3.246247    0.678418
C     -0.717129    4.455695    0.652093
C     -2.352933    3.332322   -0.701191
C     -1.746028   -2.226530    2.991486
C     -0.995278   -1.457321    3.962885
C      2.732967   -1.253829   -0.714513
C     -0.449427    2.139297    0.107745
C      3.422578   -3.980843   -0.226569
C     -1.889811    4.473347   -0.065933
C     -2.306439   -2.534155    0.611703
C     -2.049511   -2.019273   -0.666234
C     -1.620771   -1.856852    1.714618
C      2.493319    0.143108   -1.058403
C      1.473017    0.990798   -0.699447
C     -0.558432   -0.279992    0.052637
C      2.786137    2.026115   -2.194549
C     -0.059082   -0.016388    2.288851
C      0.368442    0.847134    0.219780
N      3.270704    2.944065   -3.004805
N     -0.218987   -0.443673    3.655224
N     -1.186335   -0.913196   -0.902106
N      3.270273    0.819700   -1.973231
N      1.703185    2.150378   -1.437693
N      0.665908    0.857171    1.659565
N     -0.796786   -0.774961    1.354848
O      3.759430   -5.317277    0.013018
O     -2.621466    5.674579   -0.149512
H     -1.183067    7.179813    0.023996
H     -2.850043    7.671369    0.448551
H     -1.888227    6.648745    1.566124
H     -4.410322   -5.027656   -0.081248
H     -4.014544   -4.189209   -2.337898
H     -3.284544   -3.936096    1.860457
H     -2.543254   -2.308754   -2.740934
H      3.772380   -1.542903   -2.537206
H      1.843655   -1.431722    1.192971
H      0.927958    3.306077    1.314446
H     -2.014386    1.291208   -1.117503
H      4.373105   -3.917206   -2.094382
H      2.384218   -3.722682    1.595191
H     -0.378524    5.351353    1.134977
H     -3.277247    3.374357   -1.258013
H     -2.360744   -3.038125    3.274252
H     -1.033863   -1.682365    5.024581
H      4.132143    2.690659   -3.529593
H      4.135175    0.385097   -2.402423
H      1.101918    3.001117   -1.402338
H      4.647876   -5.460465    0.496861
