35

C      5.079741   -0.559177   -0.885297
C     -3.724597   -1.924288    0.335480
C      4.995301    0.759996   -0.499340
C     -2.845141   -2.891293   -0.102156
C      3.906031   -1.283861   -0.884414
C     -3.233949   -0.670275    0.591340
C      3.800106    1.363799   -0.119834
C     -1.504884   -2.619064   -0.280161
C     -1.567951    2.002218   -0.206427
C      2.700974   -0.693050   -0.507403
C     -1.873127   -0.391052    0.410339
C      2.644459    0.640034   -0.121429
C     -0.987223   -1.362198   -0.028250
C     -2.960129    2.377246    0.083880
C      1.521314   -1.394695   -0.495018
C      0.299153    0.448672    0.241209
C     -1.096954    0.838295    0.602833
N      1.455204    1.138902    0.229779
N      0.334827   -0.842766   -0.128249
O     -3.868654    2.192808   -0.786072
O     -3.291541    2.942817    1.329741
O      1.587259   -2.602347   -0.847925
O     -1.178383    1.193039    1.956981
H      6.044305   -0.982933   -1.173980
H     -4.792398   -2.163929    0.470134
H      5.883453    1.361449   -0.485694
H     -3.252132   -3.876765   -0.300951
H      3.937961   -2.338773   -1.185680
H     -3.905039    0.095455    0.941022
H      3.739013    2.391172    0.178466
H     -0.796484   -3.356224   -0.623324
H     -1.423574    1.842101   -1.309939
H     -0.915499    2.857953    0.035941
H     -4.107336    3.496485    1.447095
H     -0.604105    2.010248    2.117300
