56

C      8.898335    0.249881   -0.625602
C     -7.071833   -0.825313    1.183756
C      2.177095    0.862373    0.795835
C      1.966831   -0.565612    0.518328
C      3.542468    1.236367    1.200987
C      0.504303   -0.943585    0.245645
C      4.723105    0.976428    0.373470
C     -0.377119   -0.645360    1.413237
C      5.147335   -0.424008    0.123745
C     -1.802998   -1.057326    1.161976
C      6.430587   -0.512464   -0.718309
C     -2.343948   -0.321750   -0.004703
C     -4.186218    0.165256   -1.532054
C     -4.991732    1.387943   -1.104621
C      7.541819    0.087137    0.028311
C     -6.023099   -0.413975    0.177899
C     -3.771925   -0.658407   -0.334265
C     -6.189191    1.022857   -0.260972
N     -4.678090   -0.489894    0.753159
O      7.420747    0.468292    1.176811
O     -7.397846    1.244899   -0.914951
H      9.025068   -0.656694   -1.283496
H      9.646812    0.241179    0.171290
H      8.947067    1.156832   -1.243159
H     -7.695006   -1.669726    0.820148
H     -6.633040   -1.120079    2.158622
H     -7.757204    0.036181    1.320190
H      1.453546    1.268410    1.569761
H      1.951344    1.476277   -0.151907
H      2.408822   -0.735711   -0.533151
H      2.483795   -1.241368    1.180610
H      3.752628    0.712646    2.211689
H      3.582201    2.332627    1.535606
H      0.505414   -2.033444    0.065808
H      0.223386   -0.372278   -0.661834
H      5.594875    1.597415    0.721610
H      4.566287    1.420601   -0.684035
H     -0.379649    0.472112    1.591759
H      0.040443   -1.127026    2.321769
H      5.428429   -0.941216    1.094267
H      4.450786   -1.095110   -0.378183
H     -1.868551   -2.169324    1.055958
H     -2.373977   -0.789075    2.088419
H      6.285993   -0.018126   -1.701786
H      6.607157   -1.606890   -0.855242
H     -2.188066    0.763510    0.143371
H     -1.753968   -0.598583   -0.921548
H     -3.280127    0.593890   -2.051086
H     -4.714473   -0.428903   -2.293488
H     -4.300612    2.037866   -0.528132
H     -5.341566    1.872783   -2.042829
H     -6.111488   -1.092931   -0.694009
H     -3.842576   -1.727215   -0.662072
H     -6.160732    1.623954    0.697015
H     -4.617181   -1.239528    1.464925
H     -7.454465    2.213207   -1.091133
