54

C     -5.406237    2.454410   -0.644719
C     -0.116350    0.115571    2.630609
C      5.726262    0.711981    1.046421
C      6.599326   -0.047299   -1.143346
C      1.799138   -1.605290    1.249514
C     -7.456093   -0.221517   -0.558028
C      3.098617    0.651380   -0.261431
C      4.207966    0.178495   -0.797877
C      1.796081    0.056062   -0.630355
C     -2.108508   -2.190100   -0.772276
C     -4.581756    1.213571   -0.695327
C      0.672719    0.628732    1.449728
C     -2.929310   -1.079961   -0.750754
C     -0.796505   -2.148672   -0.374302
C     -2.378218    0.111271   -0.303859
C     -0.284568   -0.940411    0.064863
C     -3.206133    1.307454   -0.264931
C     -4.309123   -1.146770   -1.175911
C     -5.111987    0.069399   -1.124751
C     -1.053717    0.204045    0.110289
C      5.545627    0.763874   -0.441563
C      1.054698   -0.522180    0.550447
O     -0.000309   -3.249786   -0.400987
O     -2.692169    2.373924    0.141201
O     -4.799540   -2.216137   -1.575749
O      5.625330    2.068702   -0.936363
O     -6.435435    0.107960   -1.508107
O     -0.291591    1.272475    0.591608
H     -4.936801    3.160587   -1.387514
H     -6.436008    2.301788   -0.972290
H     -5.293695    2.932837    0.333186
H     -1.089312   -0.263880    2.226634
H     -0.370949    0.947885    3.309250
H      0.375140   -0.710187    3.154801
H      5.179208    1.557177    1.535723
H      5.313046   -0.237161    1.445662
H      6.803527    0.797075    1.296782
H      7.514927    0.579672   -1.217134
H      6.219984   -0.294811   -2.172037
H      6.821688   -0.960800   -0.560735
H      2.409817   -1.161437    2.079721
H      1.111367   -2.366594    1.641703
H      2.520019   -2.059451    0.545095
H     -7.415441    0.477815    0.321922
H     -7.383783   -1.262686   -0.222429
H     -8.463050   -0.072500   -0.996507
H      3.159064    1.462482    0.435741
H      4.115333   -0.644879   -1.502165
H      1.857001   -0.673760   -1.435374
H      1.158057    0.905154   -1.010456
H     -2.540558   -3.106661   -1.118321
H      1.493671    1.286143    1.713089
H     -0.238941   -4.167113   -0.690018
H      5.948473    2.652120   -0.228373
