38

C      8.320103   -0.247721    1.438701
C     -6.145286   -0.405615   -1.321148
C      7.170032   -0.479873    1.048675
C     -4.869182   -0.484035   -0.584094
C      5.900546   -0.725645    0.639990
C      4.792085   -0.509123    0.263995
C      3.518622    0.048993   -0.179516
C      2.622388   -0.523663    0.978380
C      1.478072   -0.912821    0.760318
C      0.544750   -1.031320   -0.283257
C     -1.769343    1.778013   -0.327740
C     -3.929210    0.725273   -0.911403
C     -0.514737    1.202683    0.406013
C     -0.731791   -0.242731    0.154657
C     -2.700599    0.543736   -0.093323
Br    -3.588723    0.640596   -2.797388
Cl     0.834494    2.019846   -0.385510
O     -1.787637   -0.404897   -0.681929
H      9.211642   -0.065246    1.747775
H     -5.984689   -0.790512   -2.324817
H     -6.937601   -0.952849   -0.775462
H     -6.494586    0.676849   -1.404831
H     -4.286913   -1.401988   -0.930796
H     -5.010626   -0.477057    0.485698
H      5.783799   -2.040177    0.827525
H      5.244503    0.896155    0.482242
H      3.452926    1.097785   -0.261003
H      3.197330   -0.512288   -1.140212
H      3.162652   -0.562775    1.960819
H      0.985039   -1.346782    1.798195
H      0.235382   -2.087256   -0.381897
H      0.855906   -0.696036   -1.314259
H     -2.125953    2.671864    0.134422
H     -1.492151    1.881097   -1.350475
H     -4.444166    1.641505   -0.596633
H     -0.589100    1.457588    1.457380
H     -1.081498   -0.717371    1.176019
H     -2.826480    0.335798    0.938194
