48

C     -4.227689   -1.596858   -0.541634
C     -0.286402    3.796600   -1.077529
C      0.146727    3.377659    1.244768
C     -1.776843   -2.417406    0.719482
C     -3.037774   -1.214434   -0.946014
C      3.078917   -2.637918    1.341910
C      4.386835   -2.344457    0.957331
C      2.034465   -1.805231    1.030790
C      4.589418   -1.182572    0.250961
C     -2.126575    1.366303    0.562377
C     -2.331021   -0.028452    1.028989
C      2.259565    1.300540   -0.803853
C     -0.631479   -0.972405   -3.071583
C     -0.332080    2.910667   -0.087148
C     -0.814821    1.549829   -0.237821
C      2.251488   -0.641043    0.320569
C      1.450718    0.405593   -0.153496
C      3.547293   -0.336052   -0.068570
C      0.022824    0.404236    0.066229
C     -0.632015   -0.784365   -0.679230
C     -1.918858   -1.071648    0.014410
N      3.518112    0.829528   -0.737891
N     -0.971670   -0.339450   -2.041043
S     -0.346381   -1.878859   -4.384737
H     -5.078037   -1.711966   -1.231140
H     -4.468590   -1.829162    0.497730
H     -0.632952    3.482694   -2.074030
H      0.060829    4.795879   -0.991101
H      0.563537    2.553656    1.852853
H      0.990520    4.100470    1.098587
H     -0.639405    3.952407    1.785261
H     -2.719362   -2.978772    0.751768
H     -1.335667   -2.295159    1.727321
H     -1.059766   -3.013417    0.120773
H     -2.864364   -1.000617   -1.981359
H      2.839094   -3.535155    1.901734
H      5.175948   -3.038961    1.230087
H      1.019112   -2.054694    1.344515
H      5.589081   -0.939645   -0.053593
H     -2.072458    2.011651    1.486790
H     -2.998970    1.738708   -0.004515
H     -1.918994   -0.242355    2.054582
H     -3.445888   -0.162806    1.172332
H      2.025684    2.224826   -1.304559
H     -1.185272    1.462784   -1.308659
H     -0.135071    0.126511    1.157148
H      0.046249   -1.617948   -0.797203
H      4.391988    1.281269   -1.142588
