38

C      5.400237    5.304100    0.316448
C     -5.807191   -0.332453   -0.880567
C      4.932954    4.254181    0.450439
C     -4.488359   -0.493069   -0.135278
C      4.402859    3.091590    0.618602
C      4.526858    1.958505   -0.204701
C      3.788448    0.797837    0.219028
C      3.227933   -0.343827    0.620142
C      2.355879   -1.060837    0.130370
C      1.449164   -1.288400   -0.922981
C     -1.928075   -1.911746    0.674598
C     -3.404845   -0.914993   -1.154547
C     -0.384757   -1.738965    0.817252
C      0.021051   -1.049536   -0.397142
C     -2.112617   -0.948722   -0.460168
Br    -3.372981    0.211649   -2.690899
Cl     0.300664   -3.235516    1.340933
O     -1.010505   -1.236441   -1.313529
H      5.905965    6.425853    0.176254
H     -6.566373    0.100709   -0.191044
H     -6.199353   -1.257393   -1.259175
H     -5.613023    0.408339   -1.727710
H     -4.656484   -1.319632    0.601187
H     -4.240095    0.431450    0.354719
H      3.736743    2.813745    1.489770
H      5.232705    2.108495   -1.035648
H      3.492203    0.626883   -1.109248
H      2.642563    1.507047    0.210561
H      3.585731   -0.669631    1.714482
H      2.225868   -1.987724    0.942081
H      1.518522   -0.630638   -1.835312
H      1.482511   -2.297939   -1.327391
H     -2.421091   -1.589133    1.582804
H     -2.121419   -2.969639    0.394122
H     -3.693113   -1.982181   -1.453809
H     -0.310501   -0.960276    1.706502
H     -0.039534    0.070299   -0.176102
H     -1.858541    0.108009   -0.111368
