37

C     -4.645423    1.568157   -0.206067
C     -3.567283   -0.611209    0.383431
C      5.378798   -1.664025    2.195783
C      4.201007   -1.848385    2.905812
C      5.418093   -0.837564    1.078216
C      0.029724    0.936195   -1.148045
C      3.054211   -1.220705    2.520809
C      4.252848   -0.211853    0.703054
C     -0.903077    0.266036   -1.513907
C      1.150004    1.768169   -0.716934
C      1.869892    0.318227    0.936090
C     -3.417563    0.703139   -0.384885
C      3.081407   -0.394257    1.408000
C     -2.042702   -0.537845   -1.973085
C     -3.284711    0.325858   -1.850130
Cl    -4.734716   -0.601490   -2.317236
Cl    -3.119447    1.761951   -2.862145
O     -1.874801   -0.937830   -3.305478
O      2.186934    1.052284   -0.172504
H     -4.373586    2.358670    0.532757
H     -5.519285    1.003850    0.159350
H     -4.838859    2.084848   -1.173124
H     -3.874815   -1.436263   -0.289903
H     -4.398606   -0.515382    1.131963
H     -2.640969   -0.847555    0.946414
H      6.290861   -2.155524    2.491760
H      4.194773   -2.497119    3.773268
H      6.333313   -0.695839    0.528540
H      2.137503   -1.343729    3.046091
H      4.281866    0.432997   -0.168443
H      1.566289    2.290940   -1.626687
H      0.737330    2.536976   -0.022317
H      1.112985   -0.490086    0.714886
H      1.498018    0.922497    1.787271
H     -2.497479    1.234379   -0.103251
H     -2.104951   -1.416691   -1.318795
H     -0.937582   -1.301824   -3.389107
