37

C     -3.439412    1.002846    2.837497
C     -3.970857    2.614903    1.053304
C      4.810547   -2.103132    0.172363
C      4.498876   -2.996950   -0.831725
C      3.832570   -1.237126    0.606987
C      0.299802    0.608245   -1.813973
C      3.233957   -3.010038   -1.376110
C      2.557552   -1.265999    0.042810
C     -0.442000    1.260963   -1.079242
C      1.180521   -0.155986   -2.651531
C      0.878534   -2.183688   -1.549022
C     -2.855612    1.911467    1.783813
C      2.237176   -2.154172   -0.959167
C     -1.331238    2.013817   -0.197498
C     -1.938801    1.147699    0.869614
Cl    -0.625768    0.420662    1.810588
Cl    -2.839948   -0.185584    0.096529
O     -2.399174    2.570659   -0.940420
O      0.864656   -1.470041   -2.700163
H     -3.350879    1.406557    3.859340
H     -4.505514    0.839207    2.597859
H     -2.969030   -0.007848    2.823142
H     -4.323845    1.967638    0.237650
H     -4.821696    2.686489    1.787267
H     -3.651309    3.626586    0.721992
H      5.810846   -2.082934    0.613120
H      5.277315   -3.668388   -1.160939
H      4.070688   -0.538882    1.389755
H      2.992107   -3.716465   -2.169083
H      1.833751   -0.571890    0.415973
H      1.083862    0.257309   -3.696796
H      2.249956    0.030221   -2.368786
H      0.185770   -1.834213   -0.763183
H      0.675536   -3.261616   -1.818931
H     -2.223946    2.669547    2.322836
H     -0.748954    2.845062    0.224927
H     -2.136038    2.565073   -1.900071
