76

C     -9.996545   -0.853709    0.197245
C     -9.434395    0.126198    1.218649
C     -8.396924   -0.616578    2.018084
C     -7.328715   -1.123756    1.119335
C      4.285523    0.571713    0.063754
C      4.254656   -0.903096    0.026188
C      3.021403    1.279314    0.341478
C      5.639066   -1.500481   -0.283666
C      1.912726    1.251467   -0.627554
C     -6.596582   -0.034152    0.366965
C      6.621255   -1.103371    0.765535
C      1.338267   -0.043935   -1.022149
C     -5.527165   -0.716060   -0.489455
C      7.954254   -1.764470    0.384486
C     -1.049659    0.796186   -1.350803
C      9.230990    0.031108    1.516256
C      0.117880    0.088953   -1.907713
C     -4.717494    0.208127   -1.317487
C     -1.708165    0.204490   -0.133735
C     -3.934414    1.272827   -0.732125
C     -2.863254    1.080390    0.245824
C      8.989405   -1.426736    1.395342
Br     0.591207    0.981104   -3.580438
Br    -6.036960    1.087502   -2.502603
Br    -0.513237   -0.019130    1.352531
Br    -5.118677    2.671047   -0.017841
Br     8.443015   -2.063148    3.162262
Br    10.637156   -2.360700    0.980030
O      9.988925    2.470575    0.443103
O     11.119219    0.258684   -0.320671
O      8.880506    0.687285   -1.114379
O     -3.899972   -0.522428    2.416081
O     -1.987588    1.148041    2.739740
O     -4.153815    2.086918    2.397630
S      9.775737    0.842124    0.058491
S     -3.264115    0.924843    1.935401
H     -9.940109   -1.904660    0.596670
H    -11.070708   -0.594840    0.076473
H     -9.450504   -0.850487   -0.747055
H    -10.239601    0.461267    1.920025
H     -8.949151    0.984178    0.725276
H     -8.859176   -1.458748    2.605109
H     -7.949932    0.103114    2.745134
H     -7.701109   -1.916313    0.415103
H     -6.589468   -1.686435    1.765211
H      4.710692    1.001899   -0.912174
H      5.047735    0.911143    0.826863
H      3.976884   -1.240815    1.081906
H      3.558105   -1.417937   -0.612661
H      3.269922    2.358880    0.641477
H      2.642882    0.874625    1.364354
H      5.530093   -2.599214   -0.278355
H      5.921961   -1.173225   -1.287730
H      1.094067    1.951997   -0.245731
H      2.261686    1.843018   -1.548931
H     -7.318553    0.491915   -0.263783
H     -6.130437    0.612237    1.156694
H      6.783045    0.011047    0.754876
H      6.318216   -1.386194    1.786794
H      2.093303   -0.493640   -1.792852
H      1.307819   -0.761644   -0.239979
H     -4.916975   -1.330359    0.155579
H     -6.143706   -1.402551   -1.177916
H      8.174395   -1.449794   -0.643438
H      7.716725   -2.868488    0.379504
H     -1.816559    0.834706   -2.192395
H     -0.850298    1.899415   -1.180366
H      8.308963    0.525938    1.934913
H     10.062032    0.149154    2.279624
H     -0.237430   -0.933504   -2.231039
H     -4.163027   -0.442902   -2.051332
H     -2.031264   -0.831147   -0.405713
H     -3.446337    1.830693   -1.617968
H     -2.350442    2.147478    0.232046
H      9.686897    3.064409   -0.279771
H     -4.584149   -0.331360    3.124813
