69

C     11.849182   -0.889681    0.076465
C      4.755237   -1.102724   -2.049049
C     -0.112527   -0.321843   -1.261985
C      3.123587    1.714881    0.786733
C     -4.349840   -0.454799   -0.231700
C     -8.934845   -1.122314   -1.617559
C     10.972154   -1.242269    1.000119
C      9.682541   -0.503438    1.192779
C      8.578401   -1.486962    0.958726
C      7.231732   -0.959453    1.098396
C      6.381609   -0.982831    0.087666
C      5.006400   -0.450142    0.211038
C     -1.568005    0.956661    0.385485
C     -2.416922    1.642270   -0.629670
C      2.821097    0.079713   -0.946005
C      0.880337    1.138523    0.370840
C     -5.906533    1.043133    0.864622
C     -9.067263   -0.267794    0.729722
C      4.178509   -0.472880   -0.780444
C     -0.185986    0.628125   -0.143966
C      2.284008    0.947899    0.048146
C     -4.648091    0.778459    0.135502
C     -8.330756   -1.176849   -0.219840
C     -3.804392    1.957399   -0.178979
C     -8.006728    0.030411    1.756395
C     -6.710028   -0.205151    0.998539
O     -3.795673    2.844544    0.924546
O     -8.092904    1.341197    2.226426
O     -7.086636   -0.600633   -0.276589
H     11.651274   -0.046450   -0.569644
H     12.778670   -1.421222   -0.057162
H      5.137027   -2.107690   -1.786733
H      5.446783   -0.433103   -2.550941
H      3.916518   -1.282931   -2.748205
H     -1.154872   -0.361672   -1.762926
H      0.509621    0.005507   -2.094234
H      0.091223   -1.359316   -0.978787
H      2.772703    2.383868    1.557176
H      4.147616    1.712291    0.566978
H     -4.948825   -1.321221   -0.045916
H     -3.412527   -0.597690   -0.807388
H     -8.533076   -2.015638   -2.149912
H     -8.536229   -0.206670   -2.102757
H    -10.026977   -1.162399   -1.595793
H     11.223420   -2.101659    1.622484
H      9.695797    0.336087    0.487394
H      9.671162   -0.180688    2.253719
H      8.720641   -2.317850    1.693060
H      8.734979   -1.956651   -0.039189
H      6.946221   -0.542842    2.071361
H      6.752959   -1.409073   -0.830817
H      4.709471   -0.106324    1.180480
H     -1.454872    1.694023    1.241711
H     -1.957083    0.016514    0.797023
H     -2.389049    1.121007   -1.587376
H     -1.917520    2.644318   -0.816556
H      2.203461   -0.878986   -1.073814
H      2.756136    0.618992   -1.948185
H      0.637898    1.858252    1.222404
H     -5.608462    1.398536    1.888006
H     -6.498427    1.869327    0.373123
H     -9.938028   -0.779416    1.213572
H     -9.368287    0.675945    0.275996
H     -8.303628   -2.209627    0.177017
H     -4.317994    2.526614   -0.982054
H     -8.104967   -0.659233    2.632900
H     -6.185946   -1.034883    1.486318
H     -2.979003    3.382233    0.872826
H     -7.595475    1.386266    3.060891
