34

C      4.399118    0.117370    1.033938
C      4.539993    1.038591    0.031179
C      3.177245   -0.421855    1.303870
C     -2.743655   -1.458078    1.114596
C      3.427044    1.417452   -0.707043
C      2.062556   -0.036473    0.557835
C     -1.858217   -1.862607   -0.011256
C     -2.888080    0.077922    1.296763
C      1.054897    1.312972   -1.245262
C     -2.953296    0.066029   -1.138423
C      2.185733    0.874307   -0.438135
C     -1.940519   -1.138018   -1.318895
C     -0.688159   -0.479115   -1.726930
C     -1.110891    1.215948   -0.037282
N     -2.314947    0.538742    0.090192
N     -0.180549    0.667390   -1.052260
O      0.014132   -0.899555   -2.710284
S     -0.680377    2.447829    0.863831
H      5.301495   -0.146347    1.583298
H      5.494348    1.498552   -0.223476
H      3.083467   -1.139958    2.090008
H     -3.766193   -1.819354    0.959667
H     -2.389378   -1.824108    2.084906
H      3.556222    2.154561   -1.504819
H      1.120274   -0.483342    0.803342
H     -2.041794   -2.936574   -0.233504
H     -0.804508   -1.802344    0.327129
H     -3.961392    0.306460    1.415328
H     -2.322613    0.412089    2.168256
H      1.351251    1.155955   -2.325615
H      0.955994    2.412724   -1.143231
H     -2.755531    0.753643   -1.951878
H     -3.960919   -0.305817   -1.007584
H     -2.362752   -1.714991   -2.140964
