49

C      7.619849    0.746028   -1.253161
C     -5.115545    1.772959   -2.882854
C     -6.087517    0.599878    1.689631
C     -3.073239   -2.399212    2.093751
C      3.785796   -1.727815    0.262563
C      3.851069    0.635789    0.484564
C      5.047302   -1.706392   -0.320749
C      5.121857    0.642241   -0.104656
C     -2.829203    0.992913   -1.462712
C      1.865876   -0.539235    1.280632
C      0.755912    0.850532   -0.491926
C      3.185944   -0.556424    0.666055
C      5.713709   -0.520801   -0.503546
C     -1.683031    0.633660   -0.809352
C     -4.087387    0.724704   -0.959818
C     -1.780472   -0.029411    0.412363
C     -4.155353    0.068628    0.248805
C     -3.022267   -0.309905    0.937761
C     -0.541578   -0.408170    1.100854
C      0.727157   -0.401620    0.326265
O     -0.617592   -0.719566    2.313947
O      0.767011   -1.484235   -0.550805
O      6.967354   -0.494693   -1.082715
O     -5.247831    1.098756   -1.640334
O     -5.377734   -0.232817    0.812635
O     -3.054406   -0.972059    2.157330
O     -0.414915    0.888389   -1.287500
H      7.028152    1.350471   -1.956697
H      8.665654    0.592099   -1.576253
H      7.678807    1.234472   -0.240270
H     -6.086740    2.105460   -3.264575
H     -4.482820    2.692753   -2.758525
H     -4.645508    1.108949   -3.646745
H     -6.842747    1.210657    1.136825
H     -5.443614    1.304816    2.247924
H     -6.637794   -0.028911    2.431920
H     -4.084302   -2.759520    1.819457
H     -2.389955   -2.757948    1.272148
H     -2.727049   -2.860191    3.033259
H      3.324271   -2.697547    0.373289
H      3.465328    1.605179    0.767099
H      5.525123   -2.617733   -0.639829
H      5.657431    1.568759   -0.254378
H     -2.749958    1.515028   -2.424736
H      1.728464   -1.454251    1.868406
H      1.821711    0.309293    2.017348
H      0.793875    1.770747    0.106342
H      1.612490    0.891721   -1.196602
H      0.468415   -1.236425   -1.460036
