45

C      5.307683    1.967811    0.042008
C      4.147280   -2.364997    1.706418
C      0.096426   -1.580798    2.481713
C     -5.202265   -0.822694    1.189844
C     -5.380632   -0.856622   -0.183313
C     -4.096453   -0.188219    1.687576
C     -4.461825   -0.262905   -1.027330
C     -3.186354    0.400329    0.842829
C      2.660126    1.211085   -0.657378
C     -2.393237    0.993762   -1.414745
C     -0.369582    0.854392   -2.761099
C     -3.367048    0.364275   -0.516495
C      1.374966    0.862773   -1.015001
C      3.359564    0.548569    0.350106
C      0.788592   -0.184170   -0.331027
C      2.763960   -0.493433    1.024417
C      1.479076   -0.847306    0.672248
C     -0.569519   -0.542059   -0.718783
C     -1.290083    0.076438   -1.846336
O     -1.149287   -1.431644   -0.044107
O     -1.879362   -0.966213   -2.576644
O      4.653473    0.906497    0.703225
O      3.385932   -1.207318    2.039338
O      0.854885   -1.878667    1.321050
O      0.659712    1.506906   -2.013450
H      6.414372    1.904985    0.198542
H      4.998438    2.953767    0.409661
H      5.136495    1.828223   -1.051703
H      5.231289   -2.142203    1.768218
H      3.847778   -3.239160    2.308590
H      3.954943   -2.641339    0.629775
H     -0.777055   -2.234698    2.599799
H     -0.273981   -0.542095    2.406819
H      0.768550   -1.600960    3.385140
H     -5.956146   -1.305889    1.807789
H     -6.233975   -1.342951   -0.628722
H     -3.982873   -0.177688    2.771274
H     -4.646183   -0.315841   -2.109502
H     -2.328502    0.888198    1.310637
H      3.110922    2.024865   -1.191683
H     -2.930903    1.316302   -2.338963
H     -1.958014    1.892035   -0.936407
H     -0.927901    1.631745   -3.317565
H      0.131385    0.128347   -3.419255
H     -1.764669   -0.844857   -3.557512
