28

C     -3.172168   -0.214425    0.379565
C      1.436482    0.785569    0.096392
C      2.015917   -1.395138   -0.945836
C      0.480382    1.476898   -0.405399
C      0.859110   -1.784804   -0.037128
C     -1.702140    0.074863    0.639119
C      2.540819   -0.051154   -0.511664
C     -0.605586    2.287789    0.335056
C     -0.395464   -1.480791   -0.750708
C     -1.623516    1.570919    0.882014
O      3.537175   -0.341949    0.453629
O     -0.776813   -2.405427   -1.554431
O     -1.027407   -0.306996   -0.522694
O     -1.919446    2.218963   -0.411120
H     -3.443111    0.033963   -0.676925
H     -3.423624   -1.280649    0.612895
H     -3.759797    0.392872    1.096390
H      1.684077    0.647372    1.212216
H      2.776606   -2.188583   -0.862508
H      1.736478   -1.307927   -2.008795
H      0.188969    1.676180   -1.472652
H      0.931451   -2.870810    0.235419
H      0.910860   -1.188632    0.885157
H     -1.422986   -0.509721    1.537516
H      3.059899    0.413394   -1.334149
H     -0.453576    3.348241    0.459069
H     -2.195406    1.893069    1.734432
H      3.762815    0.506913    0.935141
