33

C     -5.105271   -0.057521    1.416002
C     -5.117206   -0.747503    0.209922
C     -3.932623    0.435370    1.944574
C     -3.939026   -0.929992   -0.446988
C     -2.765569    0.232387    1.254926
C      2.602662    1.220883   -1.156828
C      1.292497    1.088314   -0.999375
C      2.970849    0.381998    1.532480
C     -1.464093   -0.668063   -0.695783
C     -2.734473   -0.449365    0.050964
C      3.390964   -0.012494   -0.913345
C      2.887775   -0.582746    0.379947
C      0.793150   -0.249326   -0.608246
O      4.230306    0.846148    1.787679
O      4.745232    0.177661   -0.964117
O     -0.446733   -0.089275    0.026941
O      1.584795   -0.969226    0.229877
H     -6.015746    0.103924    1.959451
H     -6.036131   -1.133852   -0.204482
H     -3.894626    0.973405    2.876833
H     -3.907904   -1.464556   -1.392930
H     -1.835589    0.623179    1.673933
H      3.075190    2.143696   -1.438985
H      0.606399    1.939789   -1.153684
H      2.293539    1.253174    1.411899
H      2.614427   -0.161396    2.433624
H     -1.529538   -0.161909   -1.694745
H     -1.259049   -1.754549   -0.818097
H      3.114680   -0.729956   -1.718272
H      3.495275   -1.467795    0.649962
H      0.582368   -0.822382   -1.551778
H      4.536210    1.574557    1.196346
H      5.167259   -0.542578   -0.395673
