28

C      3.305027    0.831377   -0.178985
C     -1.436739   -1.063617    0.445405
C     -2.373413    1.105469   -0.394237
C     -0.262122   -1.307537    0.006335
C     -1.309851    1.636575    0.556575
C      1.981381    0.030392   -0.321316
C     -2.640718   -0.346640   -0.131772
C      0.915191   -2.041281    0.669632
C      0.038236    1.678615   -0.147705
C      2.177531   -1.255092    0.449444
O     -3.093916   -0.963505   -1.261920
O      0.144946    2.661988   -0.972089
O      0.948160    0.770268    0.114457
O      1.634252   -1.469884    1.673705
H      3.151826    1.737470   -0.796503
H      3.445963    1.054621    0.897623
H      4.080182    0.183179   -0.599591
H     -1.875537   -1.381920    1.462174
H     -3.300431    1.647367   -0.154391
H     -2.151197    1.327356   -1.456122
H      0.215168   -1.077374   -0.999157
H     -1.285236    0.970447    1.426543
H     -1.542736    2.655567    0.927686
H      2.022690   -0.289001   -1.389411
H     -3.507274   -0.359846    0.599018
H      1.067414   -3.108651    0.382244
H      3.129947   -1.776114    0.198241
H     -3.478743   -1.850229   -1.005882
