34

C     -2.978277    1.287867    0.999511
C      3.753334   -0.287112   -1.685161
C      3.056218    0.840248   -1.351380
C      3.580010   -1.460659   -0.986048
C     -2.570224   -0.517126   -1.040069
C      2.168826    0.782163   -0.293982
C      2.669184   -1.473819    0.079144
C     -1.567851   -0.834548    0.083535
C     -2.461659    0.977360   -1.260931
C     -0.086867    0.689514    1.433336
C      1.952091   -0.365199    0.442919
C     -0.855922    0.479083    0.193804
C      0.995383   -0.393215    1.546943
N     -1.947348    1.425836    0.020840
O      0.318596   -1.605561    1.677845
H     -3.651786    0.435195    0.858185
H     -2.594115    1.326864    2.041836
H     -3.629712    2.205977    0.906227
H      4.442602   -0.227628   -2.512780
H      3.198707    1.767380   -1.909949
H      4.133375   -2.367387   -1.245425
H     -2.257512   -1.055023   -1.937268
H     -3.597478   -0.810495   -0.754378
H      1.648242    1.668663   -0.032830
H      2.586140   -2.425348    0.590532
H     -0.879770   -1.638807   -0.265757
H     -2.070192   -1.161171    0.996376
H     -3.405797    1.446378   -1.540754
H     -1.640337    1.158387   -2.001583
H      0.368268    1.675400    1.536703
H     -0.743749    0.515826    2.318172
H     -0.247547    0.572026   -0.728247
H      1.556427   -0.247211    2.511834
H      0.758742   -2.383858    1.308799
