61

C     -3.039174    3.286652    1.203083
C     -4.525336    2.302162   -0.409062
C      7.378112    0.115034   -1.207672
C      6.773909   -1.779990    0.237010
C     -4.866947   -3.256564    0.032187
C      1.601860    0.017901   -1.571341
C      2.876210   -0.489829   -1.733019
C      4.821793    1.016838    1.014243
C     -4.480410   -2.447338    1.250560
C      6.012607    0.496099    0.818569
C     -5.014393   -2.142979   -1.020447
C     -3.668515   -0.086783    1.437245
C     -1.122000    1.175195   -1.148721
C     -3.411048    2.206690    0.564505
C      1.388306    0.885049   -0.524109
C      3.686484    0.716227    0.159491
C     -2.699084    0.907114    0.821735
C      0.050425    1.464353   -0.300796
C      3.926296   -0.156804   -0.885919
C      2.424237    1.231558    0.335550
C     -2.143137   -1.758914    0.666206
C     -3.197647   -0.189266   -1.329193
C      6.275492   -0.431190   -0.284602
C     -3.602960   -1.391715    0.714311
C     -2.098146    0.319407   -0.427093
N      2.230265    2.127315    1.428083
N     -1.412487   -0.912073    0.032946
N     -3.963235   -1.205126   -0.693077
O     -0.064720    2.243827    0.673047
O     -1.664212   -2.898046    1.252874
O     -3.389781    0.243813   -2.484615
O      5.183823   -0.675504   -1.070744
H     -3.545127    4.226859    1.012832
H     -2.241353    3.241463    1.920572
H     -5.217693    3.118231   -0.090150
H     -4.108657    2.659541   -1.389573
H     -5.048988    1.356526   -0.596616
H      7.402879   -0.462966   -2.153182
H      7.043297    1.148954   -1.481163
H      8.355929    0.141630   -0.694184
H      6.260199   -2.069920    1.152100
H      6.577026   -2.518565   -0.562347
H      7.892658   -1.747132    0.335528
H     -5.812651   -3.803486    0.155561
H     -3.996433   -3.899422   -0.221220
H      0.804489   -0.283154   -2.273782
H      3.045898   -1.165254   -2.547745
H      4.681537    1.714055    1.867842
H     -3.938815   -3.107680    1.959115
H     -5.366516   -1.966964    1.723592
H      6.827178    0.775328    1.514892
H     -4.941890   -2.533402   -2.038965
H     -6.034694   -1.713085   -0.888646
H     -4.722954    0.292484    1.383039
H     -3.467236   -0.269979    2.512979
H     -0.860051    0.757166   -2.141678
H     -1.593619    2.169376   -1.403341
H     -1.878552    1.047125    1.553766
H      2.196268    3.163323    1.316586
H      2.119948    1.684217    2.373057
H     -0.698661   -2.888385    1.607160
