61

C     -1.723509   -0.734010    2.753055
C     -3.404980   -1.910224    1.415975
C      7.266902   -1.861259    1.450550
C      7.647156   -1.027018   -0.812805
C     -6.338568    1.583900   -1.820874
C      1.872829   -1.612412   -0.716382
C      3.159065   -2.127004   -0.710543
C      5.032449    0.721411    0.783178
C     -5.656439    2.223094   -0.603484
C      6.253994    0.226075    0.784143
C     -5.833381    0.162390   -1.846327
C     -3.937779    1.151123    0.899615
C     -0.914852   -0.555741   -0.754046
C     -2.536254   -0.724951    1.713998
C      1.591401   -0.350232   -0.242440
C      3.941750   -0.098796    0.260797
C     -2.569774    0.488338    0.849430
C      0.233788    0.223576   -0.236837
C      4.206836   -1.370019   -0.219616
C      2.629330    0.394928    0.241933
C     -3.234381    2.170779   -1.161800
C     -3.347752   -0.550155   -1.203977
C      6.598408   -1.117316    0.287108
C     -4.383862    1.488309   -0.513408
C     -2.182160    0.171197   -0.572903
N      2.408695    1.689539    0.739557
N     -2.157003    1.469038   -1.277060
N     -4.533441    0.231891   -1.268452
O      0.122037    1.392062    0.226201
O     -3.358446    3.479451   -1.599470
O     -3.229028   -1.724646   -1.615230
O      5.512457   -1.845126   -0.194084
H     -1.690718   -1.605991    3.387910
H     -1.094511    0.101038    2.984305
H     -3.735618   -2.357975    2.394438
H     -2.831871   -2.715552    0.917994
H     -4.328451   -1.631497    0.898467
H      6.611391   -1.893142    2.331611
H      7.515711   -2.867465    1.049610
H      8.227739   -1.353524    1.630671
H      8.292641   -1.925172   -0.733705
H      8.272197   -0.149204   -0.579212
H      7.173664   -0.959216   -1.814536
H     -6.034500    2.101904   -2.740313
H     -7.453081    1.603355   -1.684609
H      1.042113   -2.193418   -1.097812
H      3.333852   -3.107906   -1.086436
H      4.775222    1.705971    1.146647
H     -5.445719    3.283718   -0.876452
H     -6.297088    2.222583    0.278359
H      7.046627    0.847113    1.173986
H     -5.812125   -0.188482   -2.898652
H     -6.553523   -0.433509   -1.228772
H     -3.915394    2.109965    1.456593
H     -4.690641    0.515424    1.412564
H     -0.775880   -0.715225   -1.863763
H     -0.895655   -1.524029   -0.224695
H     -1.857348    1.238509    1.234672
H      2.687193    2.496081    0.125301
H      1.992805    1.921045    1.665067
H     -2.694519    3.816408   -2.295042
