60

C      7.417253   -0.012498    0.738892
C      7.273194   -0.614954   -1.684164
C     -1.019677    2.427085   -1.130397
C     -1.396817    2.013878    1.244215
C     -6.765679   -0.301251    0.541593
C      2.196240   -2.286647    0.414196
C      3.549461   -2.392448    0.310562
C      4.419707    1.135057   -0.549224
C     -5.987415    0.231531   -0.628209
C      5.726727    1.008080   -0.644235
C     -5.793780   -0.466803    1.685282
C     -3.596802    0.995785   -0.491807
C      3.664286   -0.070233   -0.212231
C      1.569731   -1.079055    0.206713
C      4.298261   -1.268812   -0.007438
C     -2.207586    0.400001   -0.508964
C      0.255453   -0.689814    0.244137
C      2.284810    0.054662   -0.110341
C      0.163686    0.643912   -0.041320
C     -0.940129   -1.465541    0.526958
C     -4.113830   -1.333720   -1.117243
C     -3.159339   -0.858797    1.423497
C      6.460025   -0.242290   -0.437453
C     -1.133534    1.321941   -0.068820
C     -4.595610   -0.152932   -0.358467
C     -2.250075   -0.916423    0.215498
N      1.433632    1.098881   -0.260751
N     -2.972453   -1.828528   -0.694699
N     -4.510906   -0.531802    1.065392
O     -0.833460   -2.592749    1.033078
O     -4.798192   -1.887657   -2.190794
O     -2.770684   -1.070679    2.576634
O      5.677057   -1.348045   -0.119291
H      6.996304    0.768464    1.401786
H      8.393584    0.273327    0.301795
H      7.571067   -0.960786    1.292529
H      6.529507   -0.790116   -2.486226
H      7.990332    0.195584   -1.931562
H      7.794914   -1.566491   -1.437900
H     -0.052168    2.958880   -0.988981
H     -0.966650    1.962391   -2.145060
H     -1.815150    3.167253   -1.037807
H     -2.254183    2.700270    1.222279
H     -0.507026    2.655304    1.472802
H     -1.441549    1.268633    2.045860
H     -7.535926    0.473953    0.795082
H     -7.327626   -1.227208    0.310851
H      1.579146   -3.142651    0.660834
H      4.079456   -3.330968    0.467743
H      3.890415    2.068075   -0.705194
H     -6.351234   -0.311263   -1.536410
H     -6.165650    1.300999   -0.812119
H      6.309267    1.887965   -0.893149
H     -5.884192    0.345367    2.442007
H     -6.077801   -1.409471    2.215630
H     -3.810650    1.607661   -1.388577
H     -3.781810    1.647175    0.386739
H     -2.011686    0.153182   -1.593306
H      1.718034    2.064563   -0.500321
H     -4.412280   -2.679231   -2.698583
