57

C     -0.076553   -1.353722    0.456634
C      4.768521    2.070487    1.864130
C     -6.595634    0.243547    1.736523
C      3.610221    1.650161    2.449389
C      5.336593    1.317657    0.875605
C     -6.464637   -0.564054    0.629332
C     -5.507937    0.990049    2.122774
C     -0.112033   -0.307069   -3.070216
C      3.022888    0.468712    2.037838
C      4.763002    0.136337    0.453529
C     -5.259782   -0.600150   -0.052111
C     -4.325932    0.940854    1.436453
C      1.323030   -0.642256   -2.723417
C     -0.633659    0.898787   -2.318932
C      2.534113   -1.465864   -0.839565
C     -1.733490    0.854773   -0.045192
C      3.590512   -0.280226    1.052508
C     -4.177136    0.143756    0.333451
C      1.501266   -0.474921   -1.191096
C     -0.513371    0.628504   -0.844650
C      2.997447   -1.578834    0.559165
C     -2.929491    0.078011   -0.407621
N      0.191463   -0.599880   -0.684121
O      4.148686   -2.428899    0.509115
O     -2.864346   -0.675500   -1.404725
Cl     0.689114    0.000000    0.000000
O     -0.000193    0.385897   -0.000000
H      0.254724   -2.404628    0.328592
H      0.227613   -0.886573    1.416248
H     -1.202889   -1.483774    0.540916
H      5.200334    3.010870    2.219439
H     -7.534426    0.301649    2.306018
H      3.100525    2.190272    3.237172
H      6.258202    1.668462    0.421981
H     -7.304109   -1.148636    0.319980
H     -5.594217    1.627735    2.988105
H     -0.684087   -1.234379   -2.861767
H     -0.219325   -0.153384   -4.173908
H      2.102230    0.134552    2.503179
H      5.259921   -0.409774   -0.328899
H     -5.198497   -1.258634   -0.930685
H     -3.491907    1.532439    1.757211
H      2.053677   -0.014624   -3.262462
H      1.500985   -1.689795   -3.028880
H     -0.105528    1.824536   -2.626952
H     -1.727542    0.956298   -2.597538
H      3.455553   -1.183814   -1.445965
H      2.240762   -2.443691   -1.292730
H     -2.048812    1.935785   -0.202952
H     -1.520690    0.836597    1.046864
H      1.880149    0.573938   -1.077758
H      0.235502    1.423583   -0.443003
H      2.315129   -1.916305    1.321233
H      3.952982   -3.291763    0.931762
H     -0.689114    0.000000    0.000000
H     -0.808131   -0.193049   -0.000000
H      0.808324   -0.192848    0.000000
