23

C     -2.143418   -0.055515   -0.973634
C      2.198115   -0.909326    0.833172
C     -1.380579   -0.789014    0.107511
C      1.620208   -0.041041   -0.208835
C     -0.587686    0.126886    0.985896
C      0.520779    0.845450    0.296768
O      3.357941   -0.850490    1.174978
O     -0.627858   -1.800575   -0.465952
O      2.643786    0.797509   -0.671104
O     -1.465268    1.089194    1.492144
O      0.081457    1.639854   -0.748898
H     -2.942259   -0.767869   -1.320488
H     -2.699173    0.805634   -0.534086
H     -1.538546    0.202445   -1.844725
H      1.558367   -1.629882    1.312891
H     -2.144250   -1.283174    0.748497
H      1.319493   -0.660327   -1.074285
H     -0.204017   -0.446118    1.832050
H      0.980046    1.531322    1.046400
H     -1.097656   -2.659560   -0.533672
H      3.149767    1.109014    0.126849
H     -1.426875    1.938560    0.956008
H      0.827626    1.807023   -1.379386
