23

C      2.848881   -0.265962    0.268587
C     -2.898482    0.845040   -0.766000
C      1.539858    0.286996   -0.294222
C     -1.563364    0.702249   -0.128310
C      0.474865   -0.741510    0.033724
C     -0.815004   -0.493066   -0.698589
O     -2.964219    1.057408   -1.966136
O      1.265136    1.535823    0.204072
O     -1.758967    0.464027    1.250823
O      0.312602   -0.901202    1.386125
O     -1.633764   -1.606487   -0.469120
H      3.715790    0.111603   -0.311399
H      2.904535    0.006586    1.344124
H      2.805745   -1.372018    0.198277
H     -3.838350    0.772523   -0.230055
H      1.627576    0.330921   -1.412693
H     -1.027120    1.643520   -0.238003
H      0.880082   -1.719241   -0.358043
H     -0.658056   -0.381394   -1.770503
H      2.096398    2.064669    0.240603
H     -2.419185   -0.272185    1.338815
H      0.534855   -0.119507    1.930046
H     -1.429813   -1.948792    0.447878
