39

C      3.259003   -0.576889   -0.421835
C     -1.115553   -2.851666   -0.381704
C     -1.402690    0.786250   -1.962644
C     -1.116793    2.144066    0.021741
C      1.157793    0.218849    0.764556
C      0.301250   -0.433443    0.019020
C      3.372916    0.918747    1.446186
C     -3.201539   -1.529768   -0.219583
C     -3.224045    0.975521   -0.360119
C      2.601604    0.218022    0.635531
C     -1.883386   -1.590339   -0.119350
C     -3.887276   -0.278180    0.047797
C      4.818331    0.994790    1.410678
C     -1.727759    0.851969   -0.477248
C     -1.184624   -0.343901    0.264052
O     -5.012605   -0.264112    0.609680
O      5.472887    1.692951    2.231333
O      5.539892    0.303847    0.473414
O     -1.386296   -0.121928    1.621218
H      3.962720   -1.281953    0.117614
H      3.902654    0.031427   -1.092861
H      2.590927   -1.246064   -0.984232
H     -1.822274   -3.666102   -0.609845
H     -0.458840   -2.741772   -1.267643
H     -0.567915   -3.124118    0.543587
H     -1.613204    1.805582   -2.362604
H     -0.325190    0.599489   -2.147887
H     -2.064292    0.090114   -2.502215
H     -1.711661    2.983924   -0.399864
H     -0.055028    2.194860   -0.247916
H     -1.232278    2.152901    1.136559
H      0.716465    0.819794    1.561005
H      0.695485   -1.037748   -0.780192
H      2.803088    1.485741    2.210501
H     -3.753681   -2.435852   -0.502434
H     -3.646108    1.318889   -1.333350
H     -3.443841    1.771463    0.421253
H      6.505945    0.041611    0.574684
H     -1.864085   -0.876972    2.063117
