23

C      2.130035    0.561859    0.945337
C     -2.466626   -0.725298    0.253605
C      1.317686   -0.527403    0.338539
C     -1.643929    0.418034    0.698650
C      0.366054   -0.113416   -0.715681
C     -0.659921    0.885471   -0.343423
O     -2.494841   -1.754086    0.899058
O      2.246326   -1.406197   -0.278149
O     -0.988479    0.085392    1.883665
O     -0.269157   -1.245546   -1.216726
O     -1.391668    1.201135   -1.502003
H      1.559111    1.383354    1.389647
H      2.755964    0.118154    1.747418
H      2.860937    0.957780    0.187694
H     -3.068825   -0.707952   -0.642526
H      0.865203   -1.133110    1.152268
H     -2.317682    1.270940    0.955567
H      0.958109    0.304262   -1.567989
H     -0.251507    1.856557    0.004316
H      2.313157   -1.189649   -1.242677
H     -1.185578    0.680787    2.625152
H      0.185440   -2.088092   -0.975310
H     -0.819809    1.167027   -2.301754
