43

C      7.263096    0.549654   -1.354968
C     -4.660902   -1.690509   -1.165051
C     -0.036498    0.742452   -1.546608
C     -4.381489    2.281452    2.295830
C      6.387572    1.173754   -0.285268
C      4.969744    1.236601   -0.720157
C      3.988105    0.637745   -0.073849
C      2.596157    0.723302   -0.536017
C      1.654519    0.116667    0.131430
C     -2.407575   -2.396376   -0.241032
C     -3.836112   -2.557834   -0.275452
C     -1.643198   -1.223985    0.131121
C     -1.909685   -0.082216    0.687505
C     -0.640514    0.725381    0.792702
C     -3.176665    0.431525    1.230316
C      0.235593    0.112561   -0.205075
O     -4.437679   -2.894121    0.952110
O     -0.475644    1.675371    1.579968
O     -4.267746   -0.104496    1.301501
O     -3.195756    1.757752    1.771568
O     -0.196345   -1.230965   -0.147706
H      7.315528   -0.539904   -1.195868
H      8.307396    0.953649   -1.305814
H      6.866951    0.821667   -2.362585
H     -5.637425   -1.484649   -0.635584
H     -4.965453   -2.145269   -2.129175
H     -4.092661   -0.749262   -1.355023
H      0.115460    1.839551   -1.494663
H     -1.068186    0.584545   -1.893149
H      0.711971    0.348827   -2.267432
H     -4.633062    3.189018    1.680363
H     -5.249972    1.605507    2.182166
H     -4.267509    2.656556    3.330972
H      6.412768    0.493421    0.598248
H      6.776158    2.188487    0.017527
H      4.769011    1.815843   -1.622865
H      4.232702    0.078092    0.810599
H      2.315085    1.274927   -1.416994
H      1.956162   -0.443156    1.030009
H     -2.012762   -3.317865    0.370312
H     -1.982912   -2.745364   -1.278109
H     -3.971790   -3.621153   -0.817098
H     -3.726441   -2.787183    1.648298
