23

C     -2.603456    0.909219    0.151054
C      2.454930    1.055352   -0.767320
C     -1.598163   -0.153948   -0.173475
C      2.181275   -0.174515   -0.001338
C     -0.225245    0.352022    0.189553
C      0.779484   -0.691561   -0.248421
O      2.362051    1.075636   -1.971654
O     -1.874846   -1.328337    0.535144
O      2.358005    0.065558    1.355521
O     -0.138752    0.623696    1.531349
O      0.640641   -0.918300   -1.603371
H     -3.034554    1.269860   -0.816267
H     -2.120395    1.800554    0.612150
H     -3.401900    0.555372    0.818235
H      2.741190    1.947215   -0.248260
H     -1.620978   -0.434514   -1.249014
H      2.891147   -0.973229   -0.310751
H     -0.045322    1.283275   -0.396039
H      0.661112   -1.617715    0.341276
H     -2.597455   -1.844907    0.093179
H      1.995083   -0.709806    1.871333
H     -0.382844   -0.192409    2.032285
H      0.578991   -1.898519   -1.745171
