59

C     -2.478030    3.921982   -1.755989
C     -1.668930    3.069082   -1.156726
C     -4.075941   -4.206206    0.111750
C     -3.116300   -4.087901    1.071745
C     -3.974754   -3.411402   -1.018116
C      4.855682   -0.444686   -2.468482
C      6.098070   -0.388725   -1.890019
C     -2.079464   -3.204915    0.921032
C     -2.916842   -2.514242   -1.166219
C      3.690408   -0.146165   -1.774678
C      6.143891   -0.017118   -0.566446
C      2.818745    0.846559    1.573322
C     -2.294193    1.038474    1.935432
C      4.044887    0.913457    2.191531
C     -1.871128   -0.274303    1.369042
C     -0.205369    1.919093    1.055088
C     -0.802314   -1.457619   -0.314741
C     -1.891938    0.613909   -0.756937
C     -1.942033   -2.387669   -0.199874
C     -2.251498    2.009891   -0.291582
C     -1.728348    2.151985    1.100061
C      3.777457    0.220283   -0.460728
C      2.621537    0.508369    0.252434
C      5.023376    0.293038    0.181782
C      0.149173    0.557018    0.570447
C      1.315924    0.478102   -0.384962
N      5.141340    0.635007    1.485340
N     -1.048112   -0.110637    0.138257
O      1.121863    1.090820   -1.574550
Cl     0.000000    0.000000    0.000000
H     -3.551772    3.869464   -1.633690
H     -2.055857    4.691492   -2.384135
H     -0.594044    3.168957   -1.312864
H     -4.922775   -4.909804    0.206909
H     -3.165063   -4.687433    1.956741
H     -4.748105   -3.524098   -1.764135
H      4.735252   -0.726436   -3.497673
H      7.014871   -0.627743   -2.447286
H     -1.291181   -3.102264    1.684662
H     -2.887155   -1.929041   -2.069185
H      2.733997   -0.223717   -2.271217
H      7.134127    0.032830   -0.089177
H      1.978758    1.065706    2.198949
H     -1.909625    1.201377    2.984996
H     -3.401572    1.097268    2.025346
H      4.133070    1.191866    3.254039
H     -2.770915   -0.862520    1.114063
H     -1.286318   -0.786615    2.145866
H      0.075376    2.126634    2.133105
H      0.211374    2.750207    0.495211
H     -0.484961   -1.387693   -1.389638
H      0.035567   -1.946057    0.222099
H     -2.881200    0.032896   -0.766825
H     -1.608956    0.682422   -1.796351
H     -3.368002    2.125303   -0.313046
H     -1.893566    3.146708    1.552796
H      0.443486   -0.023369    1.501219
H      1.262239   -0.638687   -0.698802
H      0.605792    0.576864   -2.194640
