39

C     -1.436395   -1.113823   -2.347605
C      3.345046   -0.145116    0.042651
C     -2.401067    1.466480    1.076726
C     -0.051052    2.318050    0.824269
C      1.276982    1.628367    1.045547
C     -1.061561   -1.235238    0.823145
C     -1.934636   -0.172518   -1.298705
C      2.057212   -0.710347    0.690942
C     -2.260424   -0.935257   -0.049650
C     -0.335904    0.011985    1.171878
C     -0.941994    0.883259   -0.904851
C      0.482145    0.369601   -0.945241
C      1.914170   -2.061145    0.122111
C     -1.055642    1.245664    0.563740
C      0.968754    0.243458    0.451250
O     -3.380188   -1.291180    0.254617
O      1.022439    0.138247   -2.006041
O      1.924269   -3.074860    0.861096
O      1.765645   -2.263080   -1.236869
H     -2.336905   -1.577798   -2.844688
H     -0.885969   -1.988488   -1.911776
H     -0.881242   -0.615976   -3.155247
H      3.126934    0.235934   -0.970972
H      4.062082   -0.987417   -0.073714
H      3.786818    0.618273    0.713124
H     -2.468588    2.500767    1.525341
H     -3.168908    1.446990    0.269926
H     -2.726496    0.796058    1.915346
H      0.074155    2.942459   -0.098946
H     -0.324056    2.985462    1.663189
H      2.111579    2.114876    0.542068
H      1.402358    1.498343    2.128925
H     -0.489224   -1.987243    0.269642
H     -1.459541   -1.761283    1.726276
H     -2.854970    0.346475   -1.636669
H      2.284327   -0.723297    1.775350
H     -0.232515    0.172833    2.274700
H     -1.064644    1.766797   -1.547217
H      2.147006   -3.086315   -1.703666
