42

C      1.590070   -3.558371   -1.356090
C      2.091589    3.235666    1.405278
C     -2.840577    1.534113    0.804445
C     -3.170063   -0.343347   -0.723797
C      2.767876    0.221057   -0.532114
C      2.524561   -1.250816   -0.842355
C      2.224188    0.730255    0.742041
C      0.012253   -1.807044   -1.144274
C      0.315444    2.100014    0.201925
C     -0.632336   -1.489421    0.155913
C     -0.302281    0.935466   -0.446460
C      1.528590   -2.038049   -1.059184
C      1.506046    1.992599    0.751292
C     -0.951281   -0.062591    0.446368
C     -2.464999    0.113387    0.513521
O     -2.902901   -0.684313    1.570039
H      2.228219   -4.189299   -0.795309
H      0.562555   -4.006242   -1.075028
H      1.604356   -3.737475   -2.450027
H      2.996427    3.004254    1.965454
H      2.222766    4.040063    0.651091
H      1.331493    3.616149    2.132157
H     -3.822732    1.583233    1.350971
H     -2.921477    2.145782   -0.112554
H     -2.094958    1.962655    1.523174
H     -2.644674   -0.122054   -1.656624
H     -4.131049    0.214975   -0.759303
H     -3.473595   -1.426928   -0.677793
H      3.907591    0.396045   -0.419663
H      2.563432    0.888128   -1.389334
H      3.656190   -1.570257   -0.868687
H      1.653439   -0.126793    1.190592
H      3.037177    0.848703    1.541621
H     -0.492689   -2.792417   -1.458695
H     -0.361705   -1.162540   -1.917861
H     -0.184566    3.091782    0.254231
H     -1.613826   -2.054974    0.194382
H     -0.087263   -1.947515    1.028940
H     -1.176874    1.384281   -1.038640
H      0.298731    0.521995   -1.276914
H     -0.680711    0.108985    1.536452
H     -3.672438   -0.299140    2.040821
