42

C     -1.047755    2.352466   -1.431997
C     -2.779962   -2.209760   -1.282409
C      3.097014   -0.198160    1.353269
C      3.480571    0.784416   -0.913063
C     -2.938473    0.129997    1.046686
C     -2.572691    0.904687   -0.131682
C     -2.317229   -1.251135    1.087238
C     -0.493141    1.485231    0.919250
C     -0.535859   -1.646104   -0.479058
C      0.895919    1.322909    0.355387
C      0.523300   -1.180775    0.421710
C     -1.436775    1.548884   -0.220337
C     -1.828289   -1.696994   -0.225492
C      1.198062    0.001209   -0.237917
C      2.707692   -0.224597   -0.107636
O      3.037329   -1.493971   -0.634061
H     -0.530873    3.263118   -1.083192
H     -0.404907    1.808483   -2.120537
H     -1.991847    2.723741   -1.928889
H     -2.842009   -3.326143   -1.230878
H     -2.451500   -1.886759   -2.292612
H     -3.786068   -1.825698   -1.070518
H      2.237917   -0.356696    2.031366
H      3.846041   -1.000776    1.566928
H      3.562989    0.781897    1.622926
H      3.427997    1.803131   -0.532554
H      3.142173    0.681520   -1.968646
H      4.544597    0.470320   -0.888353
H     -4.071897    0.080568    1.052974
H     -2.719930    0.607891    2.031181
H     -3.248491    0.976044   -1.001976
H     -1.645394   -1.419151    1.936291
H     -3.188250   -1.943098    1.319612
H     -0.742213    0.783654    1.700944
H     -0.499410    2.504841    1.402492
H     -0.220028   -1.988337   -1.468917
H      1.010519    2.098375   -0.431543
H      1.657324    1.598235    1.139475
H      0.258748   -0.961363    1.445194
H      1.252219   -2.048033    0.492420
H      0.994567    0.027711   -1.335205
H      3.418013   -2.081775    0.092131
