48

C      2.920803    0.965173    0.059540
C     -3.343751   -1.020771   -0.126466
C     -2.267880   -1.756015    0.304420
C     -3.144025    0.288972   -0.498072
C     -1.010805   -1.167304    0.355797
C     -1.892913    0.851458   -0.439612
C      1.723885    0.002361    0.107566
C     -0.779529    0.130230   -0.006070
C      0.501363    0.831124    0.015210
N      1.873204   -0.787034    1.281882
O      0.577129    1.522990   -1.222105
C     -2.144320    0.291660   -0.459033
C      2.980927    0.474910   -1.434961
C      2.870664   -0.740023   -0.815620
C      1.977590    1.408074   -1.254669
C      1.768778   -1.044388   -0.012778
C      0.895369    1.089753   -0.457332
C     -1.557186    0.417396    0.922516
C      0.752699   -0.121350    0.179793
C     -0.370315   -0.499188    1.028718
N     -2.562682   -0.036390    1.882532
O     -0.811436   -1.787113    0.727644
H      3.114771    1.291800   -0.988984
H      3.794856    0.551649    0.566203
H      2.636646    1.908101    0.612024
H     -4.322800   -1.459168   -0.172770
H     -2.387141   -2.788753    0.604580
H     -4.028278    0.836282   -0.834435
H     -0.201464   -1.758871    0.691335
H     -1.808228    1.887531   -0.747288
H      1.808976   -0.591510   -0.836526
H      0.506514    1.655723    0.782433
H      2.182136   -1.757295    0.972879
H      2.642085   -0.468163    1.922796
H      0.904447    0.831490   -1.877660
H     -1.660506   -0.513562   -1.018277
H     -3.252965    0.083787   -0.405289
H     -2.085309    1.258350   -1.034980
H      3.828488    0.717601   -2.056439
H      3.669577   -1.459787   -0.969754
H      2.026440    2.396146   -1.733733
H      1.733773   -2.002845    0.444487
H      0.139461    1.823403   -0.335395
H     -1.330662    1.465952    1.182158
H     -0.032767   -0.489105    2.093493
H     -3.333016    0.663709    1.851003
H     -2.973629   -0.951487    1.623476
H     -0.528974   -2.445504    1.416581
