54

C     -4.635549    1.445957   -1.305023
C     -3.232544    1.897310    0.669014
C     -5.463434    0.987944    0.977602
C      4.162779   -1.249747    1.382926
C     -3.508685   -1.390135   -1.787159
C     -4.513713   -1.918834    1.017585
C      1.334673   -0.222783   -0.882336
C     -0.038308   -0.124323   -0.517526
C      5.589371   -0.012566   -1.032804
C      5.921762    1.306449   -0.352492
C      2.089951   -0.497368    0.460269
C      4.115594   -0.355360   -0.985511
C     -0.917172   -1.276842   -0.026194
C      3.860537    1.049686    1.026587
C      5.322411    1.225024    0.998572
C     -4.308273    0.978556    0.046643
C      3.528250   -0.380605    0.320204
O      5.959296    1.296721    2.042378
O     -1.964223   -0.493027    0.456350
Si    -3.515625   -0.771448    0.030956
H     -5.472830    2.205441   -1.214532
H     -4.979398    0.688084   -2.009541
H     -3.800806    2.080941   -1.755072
H     -2.357270    1.918551   -0.017700
H     -2.903571    1.402339    1.628119
H     -3.602693    2.885270    0.902429
H     -5.909212    2.020607    0.973941
H     -5.148512    0.700598    2.012197
H     -6.202819    0.252518    0.562624
H      3.484309   -2.218594    1.242342
H      5.107421   -1.674318    1.020202
H      4.040915   -0.964028    2.373229
H     -2.757376   -0.763403   -2.342935
H     -4.499072   -1.297183   -2.163720
H     -3.162655   -2.436337   -1.726580
H     -4.041347   -2.575897    1.731542
H     -5.351754   -1.387527    1.598056
H     -5.153049   -2.629611    0.359749
H      1.434684   -1.330900   -1.399562
H      1.738405    0.391952   -1.593283
H     -0.654715    0.215263   -1.479412
H     -0.206572    0.768347    0.154407
H      6.189584   -0.823862   -0.605213
H      5.839694    0.087363   -2.094679
H      5.418502    2.154563   -0.871708
H      6.997267    1.424106   -0.376451
H      1.596711   -1.280164    0.969510
H      1.693956    0.466833    1.024577
H      3.673228    0.505765   -1.626027
H      3.963362   -1.304917   -1.534912
H     -0.400354   -1.770834    0.788921
H     -1.221085   -1.954284   -0.813036
H      3.410760    1.766552    0.352188
H      3.449194    0.982158    2.027901
