50

C     -5.226984    1.777150    0.910267
C      4.081706    3.726479    2.521615
C     -4.821233    2.166935   -0.475875
C     -3.300883    2.298335   -0.620128
C      1.959422   -2.539492   -1.869735
C      1.142589   -3.439262   -0.929293
C      3.325223   -0.552233   -1.490247
C     -1.436379    0.512026   -0.252983
C      1.597786    0.364113    0.435907
C     -2.047800   -2.979625    0.770103
C      3.791420    2.406124    1.885168
C      2.179977   -1.271400   -1.147262
C     -2.719556    0.963526   -0.287981
C      1.294344   -0.835669   -0.184022
C     -1.172738   -0.738914    0.078198
C     -0.153434   -2.740482   -0.720427
C      3.603687    0.640788   -0.856920
C      2.737276    1.099962    0.108914
C     -2.310887   -1.556404    0.387827
C      0.085467   -1.555067    0.209268
N     -1.187899   -3.575374   -0.220816
O      4.234502    1.339568    2.384027
O      4.724727    1.401293   -1.152984
O      3.032987    2.300961    0.735181
S     -3.639686   -0.504231    0.187934
Cl     0.688153    0.000000    0.000000
H     -5.802221    2.631350    1.345984
H     -4.310304    1.572287    1.514926
H     -5.897273    0.886753    0.906431
H      3.163973    4.153172    2.982729
H      4.470177    4.465276    1.789251
H      4.871350    3.587694    3.286123
H     -5.287332    3.102651   -0.827288
H     -5.154833    1.368586   -1.171549
H     -3.112559    2.579880   -1.670532
H     -2.885745    3.018648    0.083372
H      2.905487   -3.092582   -2.071113
H      1.444450   -2.401954   -2.837122
H      1.759751   -3.509367    0.002377
H      1.062761   -4.407453   -1.437930
H      4.010745   -0.903778   -2.246066
H     -0.627480    1.249241   -0.519768
H      0.931525    0.750838    1.208128
H     -1.518192   -3.052133    1.746701
H     -3.045248   -3.462900    0.809575
H     -0.488560   -2.360000   -1.725899
H      0.124900   -1.955387    1.241575
H     -1.765593   -4.006247   -0.950422
H      5.376589    1.076323   -1.865219
H     -0.688153    0.000000    0.000000
