53

C      1.442105    2.891049   -1.281494
C      5.754022   -0.911258   -0.528871
C      4.992990   -1.498203    1.707876
C      4.629518   -3.086233   -0.145887
C     -5.121131   -2.540361   -0.018797
C     -6.466326   -0.560399   -0.562229
C     -0.609137    0.621043   -0.705352
C      0.746442   -0.052768   -0.760195
C      0.231715    2.394213    0.847341
C      1.489817    2.158465    0.051664
C     -0.826611    1.345707    0.595023
C     -3.443067    1.305166    0.437690
C     -2.149800    1.987970    0.577526
C     -3.738210    0.307137    1.464690
C     -3.666211    0.696692   -0.894396
C      3.038631    0.239428    0.135140
C      4.647782   -1.625484    0.252888
C     -5.150809   -1.048659   -0.033372
N      1.773885    0.769864   -0.188185
O     -2.195884    3.202561    0.688318
O     -3.086593    0.103816    2.514798
O     -3.460965    1.346648   -1.948294
O      3.909898    0.992984    0.633669
O     -4.849832   -0.496348    1.259689
O     -4.110057   -0.615753   -0.928818
O      3.390743   -1.083911   -0.064620
H      2.243128    3.652860   -1.350203
H      1.597097    2.178522   -2.117093
H      0.465953    3.407230   -1.387081
H      5.298544   -0.573575   -1.491732
H      6.528631   -1.648301   -0.796729
H      6.180330   -0.072798    0.053350
H      5.445034   -0.484399    1.870579
H      5.819289   -2.213597    1.945240
H      4.164481   -1.720578    2.385110
H      4.131684   -3.205675   -1.137957
H      5.640709   -3.510483   -0.160714
H      3.965551   -3.607322    0.581262
H     -4.931334   -2.893812   -1.054166
H     -6.125494   -2.903347    0.267094
H     -4.392948   -2.960686    0.703593
H     -7.042863    0.052407    0.131028
H     -7.134632   -1.413905   -0.871690
H     -6.331304    0.029138   -1.514189
H     -0.757359    1.304497   -1.546218
H     -1.369905   -0.179987   -0.773421
H      0.756848   -1.035564   -0.253689
H      0.985825   -0.219862   -1.828497
H      0.474616    2.471902    1.930490
H     -0.141168    3.418948    0.561069
H      2.319965    2.605913    0.640988
H     -0.711776    0.600387    1.409774
H     -4.251818    2.078719    0.531287
