76

C     -6.681587    0.777613   -0.717814
C      6.786507    0.348643    0.987760
C     -6.172896    1.837672    0.011057
C     -5.818214   -0.263654   -0.997680
C      5.948978   -0.691077    1.329769
C      6.344403    1.429009    0.236913
C     -4.868118    1.847186    0.433580
C     -4.511763   -0.258896   -0.577164
C      4.634248   -0.618008    0.891818
C      5.035566    1.458630   -0.174423
C     -4.044405    0.815424    0.146099
C      4.170991    0.442367    0.146025
C     -0.430220   -0.314321    0.698983
C      0.516833   -0.398885   -0.474100
C     -0.193729   -1.451347    1.653568
C      0.232148   -1.578934   -1.309800
C     -2.628828    0.782542    0.581390
C      2.797835    0.503918   -0.302939
O      0.969008   -1.644986    2.092587
O     -1.189031   -2.295231    2.073690
O      1.125024   -2.435472   -1.513220
O     -1.003565   -1.806797   -1.904128
O     -2.228657    1.770529    1.237001
O      2.418439    1.487704   -0.979771
O     -1.771008   -0.239690    0.309928
O      1.855199   -0.472262   -0.028823
C     -2.107919   -2.797712   -0.403327
C     -2.003374    2.894273    0.526361
C     -1.646795   -2.084040    0.812576
C      1.561685    0.331394   -1.666895
C      2.896184    0.705546   -1.630826
C     -0.611402    1.175341    1.558421
C      1.050727   -0.533013    1.968922
C     -1.264899    0.858374   -0.813796
C     -1.245947    1.598625    0.482927
C     -0.453508   -0.288115    1.886230
C     -0.917240   -1.006858    0.666949
C      0.916909   -0.080476   -0.514877
C      1.611793   -0.113781    0.658386
C      3.562180    0.659949   -0.437144
C     -0.538059   -0.474631   -0.624323
N     -0.643049   -1.317853   -1.760583
N      2.913737    0.258127    0.658743
O      4.917460    1.036411   -0.382715
H     -7.712756    0.752024   -1.061384
H      7.809859    0.319990    1.312512
H     -6.862548    2.644816    0.221469
H     -6.194850   -1.117802   -1.574337
H      6.323614   -1.515665    1.914062
H      6.995559    2.254996   -0.039071
H     -4.487379    2.685411    1.003050
H     -3.831353   -1.098776   -0.808017
H      3.959753   -1.444629    1.161129
H      4.708578    2.324394   -0.767898
H     -0.185674    0.605955    1.268650
H      0.426656    0.550139   -1.044044
H     -0.952719   -3.293974    2.157138
H     -1.289897   -2.698555   -2.284141
H     -2.861906   -3.566279   -0.040446
H     -2.722215   -2.168224   -1.086309
H     -1.331432   -3.394123   -0.906667
H     -2.896975    2.791558   -0.152526
H     -1.391476    3.749790    0.221069
H     -2.416902    3.101647    1.530400
H     -1.922167   -2.467930    1.823608
H      1.053989    0.376025   -2.626703
H      3.386214    1.024823   -2.538136
H     -0.181137    1.886330    2.243461
H      1.190128   -1.632121    2.055833
H      1.504760    0.029353    2.791677
H     -2.304313    0.719124   -1.108042
H     -0.734001    1.460547   -1.568692
H     -0.990496   -0.582567    2.786152
H      0.278843   -1.596444   -2.172391
H     -1.250471   -0.834954   -2.488775
H      5.591074    0.281883   -0.277191
