50

C     -5.248204    3.275271   -0.876553
C      2.880653    4.550272    1.298894
C     -4.546016    1.942351   -0.877530
C     -3.491128    1.965756    0.178773
C      2.344100   -2.944598   -1.458954
C      1.195012   -3.801014   -1.066719
C      3.685029   -1.093888   -0.465879
C     -1.628394    0.225706   -0.346655
C      1.422832    0.248362    0.325621
C     -1.534195   -3.131574    1.262561
C      2.785997    3.243634    0.597507
C      2.451929   -1.651185   -0.745536
C     -2.735501    0.680182    0.255425
C      1.316806   -0.934898   -0.324794
C     -1.163322   -1.012247   -0.071622
C      0.221785   -3.034274   -0.207441
C      3.787160    0.111367    0.196663
C      2.673088    0.811581    0.608054
C     -1.869090   -1.752637    0.831090
C      0.053336   -1.636555   -0.676918
N     -0.991989   -3.762637    0.041853
O      2.722976    3.188504   -0.659775
O      5.037392    0.648096    0.464523
O      2.761935    2.027399    1.276682
S     -3.257661   -0.712685    1.349635
Cl     0.688164    0.000000    0.000000
H     -6.348619    3.142991   -0.864827
H     -5.029829    3.854113   -1.813181
H     -4.905327    3.925556   -0.037391
H      3.729248    5.098480    0.802058
H      1.944245    5.115323    1.246903
H      3.200658    4.398213    2.345619
H     -5.265835    1.147427   -0.670556
H     -4.120168    1.737045   -1.887463
H     -2.779924    2.798414    0.070655
H     -4.015916    2.161116    1.156532
H      2.327620   -2.686610   -2.552170
H      3.331404   -3.465285   -1.323684
H      0.704888   -4.228174   -1.972138
H      1.580680   -4.634318   -0.423050
H      4.585847   -1.634908   -0.784592
H     -1.122482    0.937312   -1.086947
H      0.528213    0.773640    0.638588
H     -2.401021   -3.660473    1.653576
H     -0.675547   -3.066363    1.960913
H      0.733644   -2.965219    0.804237
H     -0.024261   -1.633548   -1.787243
H     -0.726218   -4.724750    0.323779
H      5.874170    0.159729    0.176257
H     -0.688164    0.000000    0.000000
