81

C      6.792543   -0.654662    1.438601
C     -7.073505    0.282438    1.037892
C      4.951661    1.046566    1.347513
C      4.649220   -0.963952    0.194761
C     -5.392150   -0.360975   -0.716979
C     -4.653718    0.396170    1.425247
C      3.712065    1.471822    0.928310
C      3.379799   -0.517716   -0.229438
C     -4.095260   -0.514817   -1.111810
C     -3.333801    0.228009    0.991569
C      5.445179   -0.181319    0.988559
C     -5.668377    0.095447    0.553933
C      2.867028    0.699983    0.115068
C     -2.998235   -0.222940   -0.263563
C      1.591467    1.241981   -0.282845
C     -1.672225   -0.430466   -0.765905
C      0.639762    0.229672   -2.381304
C      0.245711   -1.464158    0.184286
C      0.485413    0.721797   -1.041796
C     -0.393936   -0.153142   -0.119873
O      1.385283    2.481039    0.134541
O     -1.563116   -0.930850   -1.952037
O      1.190933   -0.838390   -2.775435
O      0.132516    0.984126   -3.481791
O      0.636323   -1.782338    1.335864
O      0.448028   -2.434466   -0.817137
O     -0.395737    1.890355   -1.187774
O     -0.577639    0.514943    1.079039
C      0.125031    0.360246    2.195233
C     -3.223194   -1.410204   -0.772128
C     -3.333910    0.990893   -0.396956
C      3.929525   -0.835893    0.533138
C      2.601386   -0.986587    0.259616
C      4.467602    0.431786    0.584061
C      2.297826    1.344018    0.077717
C     -1.423345   -0.040454   -1.660694
C     -0.543304    0.432237    0.866683
C      1.759605    0.080603    0.027705
C      3.648837    1.513452    0.354938
C     -2.354182   -0.176786   -0.523163
C      0.354427   -0.158291   -0.240465
Cl     4.335581    3.145789    0.414791
N     -1.759072   -0.354961    0.769245
O      0.101954   -1.541981   -0.334179
O     -0.147537    0.393004   -1.403457
H      6.756137   -1.713564    1.753568
H      7.138366   -0.079294    2.321796
H      7.504650   -0.464939    0.620666
H     -7.355530    1.354503    1.030124
H     -7.779965   -0.336064    0.452426
H     -7.083800   -0.047431    2.101450
H      5.578825    1.666018    1.974202
H      5.004512   -1.930854   -0.104819
H     -6.232437   -0.591721   -1.386813
H     -4.822536    0.757488    2.432735
H      3.348609    2.452115    1.231958
H      2.809291   -1.166133   -0.852348
H     -3.880368   -0.878690   -2.126662
H     -2.564336    0.465431    1.706685
H      0.393264    0.752703   -4.443063
H      0.800767   -3.353319   -0.601861
H      0.246112    2.558100   -1.577317
H     -0.596797    1.496601    0.839776
H      1.142853   -0.087429    2.153071
H     -0.426166   -0.183166    2.970805
H      0.288416    1.402847    2.579535
H     -3.468330   -1.927205    0.177613
H     -2.652417   -2.129105   -1.382528
H     -4.113838   -1.115427   -1.352493
H     -3.521360    1.249267    0.672521
H     -4.320733    0.744362   -0.825413
H     -2.872730    1.878292   -0.854669
H      4.533985   -1.706500    0.710173
H      2.203122   -1.998888    0.229564
H      5.515636    0.516968    0.804851
H      1.686478    2.213174   -0.104079
H     -1.880428    0.683800   -2.393675
H     -1.343901   -0.995470   -2.254182
H     -0.819623    1.480216    0.585768
H     -1.440102   -1.363581    0.837307
H      0.651907   -1.849026   -1.111987
