46

C     -4.131621   -0.658271   -0.710953
C      3.662083   -3.830935    0.279811
C     -0.320897   -2.806367    0.487435
C      1.000178   -3.151852    0.419597
C      0.070618    2.922049    1.213943
C     -0.301718    1.676082    1.003443
C     -0.999633    1.170627   -1.302356
C     -2.316281    0.844916   -0.675164
C      2.005151    2.628504   -0.158393
C     -2.175383   -1.292100    0.395456
C     -0.715956   -1.482959    0.288171
C      0.895423    3.605489    0.184987
C      1.933786   -2.147555    0.146994
C      1.427191    1.375856   -0.738464
C      0.203012   -0.506996    0.022169
C      1.535665   -0.826680   -0.051507
C      0.091840    0.972528   -0.232930
N     -2.665885   -0.577326   -0.795085
O      1.443243    4.792411    0.678223
O      3.272513   -2.497555    0.078220
O      2.283286    0.307195   -0.329286
B      0.007690   -0.017454    0.069412
F     -0.902453   -1.128672   -0.045564
F     -0.550743    1.318014   -0.036455
F      1.445505   -0.171888    0.012607
H     -4.435880   -1.589263   -0.157009
H     -4.553415   -0.749607   -1.712970
H     -4.504763    0.200998   -0.143888
H      3.130288   -4.494839   -0.425899
H      3.444801   -4.184831    1.320292
H      4.759957   -3.909982    0.088833
H     -1.058249   -3.548298    0.693520
H      1.344625   -4.185074    0.571633
H     -0.222550    3.445784    2.131692
H     -0.916940    1.140383    1.762647
H     -0.756855    0.376991   -2.066222
H     -0.928640    2.160807   -1.743836
H     -3.118244    1.400581   -1.242047
H     -2.396676    1.100507    0.384523
H      2.550357    2.373441    0.791364
H      2.714579    3.066759   -0.898687
H     -2.504254   -0.797198    1.309247
H     -2.667285   -2.302245    0.344254
H      0.332833    3.882125   -0.715094
H      1.454916    1.461592   -1.856392
H      2.134781    4.634307    1.359730
