75

C     -3.126200    2.482458    1.297823
C     -3.320761    1.399937   -0.772176
C      4.623797    3.176363   -0.005167
C     -1.961354   -2.838522    0.697485
C     -1.280105   -3.002631   -0.643080
C      3.715325   -0.918334   -0.628310
C     -2.197256   -1.394465    0.844786
C      2.446375   -1.383498   -0.371926
C      4.049218    0.401113   -0.436819
C      0.092921   -2.439725   -0.444583
C      1.816170    0.749876    0.265105
C     -1.488689    0.834689    0.737706
C      1.408323   -0.553777    0.097555
C     -1.163662   -0.479966    0.113688
C      3.073635    1.265141    0.022475
C      0.117370   -1.110379    0.346223
N     -2.887795    1.238174    0.576229
O      0.121417   -1.483486    1.736883
O      3.349882    2.634123    0.236073
C     -3.495125    2.016831    0.494655
C      5.472391   -0.931208   -0.017637
C     -1.575241   -0.126824    1.452526
C     -0.312610   -0.511469    1.845557
C      1.650067    0.216207   -1.160852
C      2.897476   -0.176478   -0.738011
C     -0.674283    0.474572   -0.657112
C      2.041081   -0.789231    1.379490
C     -3.080135    0.809989   -0.321389
C     -1.773507    0.377636    0.179041
C      0.596458    0.095365   -0.283140
C      0.773864   -0.409617    1.002617
C      3.130982   -0.684808    0.527707
C     -4.093781   -0.237682   -0.337904
O     -5.141208   -0.101599    0.324195
O     -3.909886   -1.382182   -1.078665
O      4.401879   -1.061958    0.895938
H     -3.008194    3.367149    0.668325
H     -2.505337    2.462184    2.211948
H     -4.186639    2.417667    1.677197
H     -2.877130    0.743840   -1.509454
H     -3.133682    2.466364   -1.117588
H     -4.425803    1.263499   -0.793400
H      5.009286    2.760361   -0.965830
H      5.376416    2.949021    0.767129
H      4.525813    4.267429   -0.203598
H     -2.931114   -3.380256    0.624475
H     -1.387309   -3.321555    1.518127
H     -1.844233   -2.423712   -1.383233
H     -1.193349   -4.072309   -0.879039
H      4.512828   -1.577675   -0.984827
H     -2.257495   -1.125026    1.912978
H     -3.222311   -1.162950    0.412760
H      2.316122   -2.448145   -0.554738
H      5.053936    0.773975   -0.635382
H      0.661199   -3.228091    0.098604
H      0.539979   -2.263501   -1.425938
H      1.106475    1.442400    0.634779
H     -1.016477    1.702369    0.159644
H     -1.295876    0.916483    1.808783
H     -1.459478   -0.497572   -0.938598
H      0.253760   -0.609041    2.184961
H     -4.591239    2.087904    0.570671
H     -3.016560    1.976632    1.500769
H     -3.092024    2.953928    0.020748
H      5.141430   -1.433844   -0.957681
H      5.539955    0.158696   -0.290765
H      6.414299   -1.321019    0.364966
H     -2.436368   -0.205712    2.115615
H     -0.151762   -0.912598    2.856528
H      1.457425    0.613733   -2.145442
H      3.707600   -0.061730   -1.472460
H     -0.772360    0.866388   -1.675307
H      2.189477   -1.186536    2.386492
H     -2.963696    1.170912   -1.366712
H     -4.334602   -2.284298   -0.815651
