73

C      7.309845    2.856225    0.504670
C      7.892791    0.841948   -0.893888
C      2.015373   -3.718958    0.447119
C     -7.335490    3.085616    0.314698
C     -2.773499    2.969719   -1.702308
C     -2.121442   -5.861018    0.997333
C     -5.151609   -2.083041    1.130555
C      3.842158    1.777731   -1.860998
C      2.700872    1.109663   -1.495292
C      5.017772    1.672406   -1.152235
C     -1.006421    1.349944   -0.147271
C     -1.681221    2.665179    0.317227
C     -2.639548   -3.133250    0.605685
C     -4.455324    1.089396   -1.240089
C      7.408234    1.367681    0.436851
C      0.888747   -3.450858   -0.430447
C     -6.265299    2.075912    0.128561
C     -2.168344    0.439197   -0.462038
C      2.709680    0.307590   -0.392137
C      4.994063    0.852484   -0.041573
C     -3.365915    1.184756   -0.160960
C     -1.394843   -3.633779    0.346981
C     -2.840648   -1.798840    0.398629
C     -0.379163   -2.813234   -0.107677
C     -1.885983   -0.906484   -0.054248
C      3.861460    0.177624    0.338874
C     -0.618430   -1.445161   -0.308830
C      1.523101   -0.424319    0.061375
Cl     3.904012   -0.855142    1.783857
N      6.174635    0.688853    0.738238
N     -2.938017    2.598984   -0.317483
O      1.009047   -3.818377   -1.643260
O     -6.066166    1.239350    1.042709
O      1.476783   -0.761539    1.264638
O     -1.141417   -4.983453    0.540998
O     -4.091392   -1.252290    0.659747
O     -5.488064    2.029846   -1.010269
O      0.474843   -0.751030   -0.762694
H      6.261229    3.180721    0.701608
H      7.743644    3.331913   -0.391290
H      7.899093    3.265894    1.370933
H      8.234496    1.640587   -1.577934
H      8.797821    0.186835   -0.735186
H      7.147805    0.144790   -1.369767
H      2.911765   -3.140137    0.133075
H      2.348511   -4.793276    0.379014
H      1.834215   -3.487776    1.511481
H     -8.005225    3.141305   -0.569910
H     -7.946375    2.843103    1.201351
H     -6.891159    4.091553    0.513830
H     -2.158119    3.918531   -1.747751
H     -3.720598    3.254430   -2.197437
H     -2.242834    2.256965   -2.322178
H     -1.790398   -6.900277    0.750425
H     -2.270744   -5.818639    2.112390
H     -3.106378   -5.692546    0.544746
H     -4.870972   -2.572502    2.088048
H     -5.436318   -2.823712    0.381692
H     -6.037705   -1.466508    1.370186
H      3.833025    2.419040   -2.742889
H      1.770180    1.207137   -2.076185
H      5.919015    2.198425   -1.438394
H     -0.520863    1.020568    0.825456
H     -0.323180    1.499643   -0.965077
H     -1.722981    2.753121    1.403107
H     -1.021710    3.470135   -0.124442
H     -3.477554   -3.751551    0.967271
H     -4.943528    0.114711   -1.316506
H     -3.998371    1.271379   -2.245644
H      8.167745    1.058783    1.219242
H     -2.158344    0.330751   -1.650539
H     -3.757550    1.121590    0.851184
H      6.137179    0.035688    1.580438
