80

C     -4.780504    2.655062   -1.956425
C      4.939110    2.577895   -2.152133
C     -3.450897    2.375574    0.126361
C     -3.398063    0.631002   -1.414971
C      3.817124    1.462829   -0.202520
C      3.251651    0.764147   -2.352836
C     -2.612197    1.691989    0.965204
C     -2.539347   -0.071369   -0.558779
C      2.941571    0.551805    0.382235
C      2.379609   -0.145475   -1.821985
C     -3.867994    1.869803   -1.083000
C      3.995069    1.594387   -1.549699
C     -2.111647    0.415572    0.652339
C      2.199784   -0.277319   -0.435257
C     -1.216532   -0.258683    1.574458
C      1.260205   -1.261935    0.032863
C     -1.036951   -2.353618    2.682049
C      1.219700   -3.079887    1.551104
C     -0.644710   -1.582547    1.443125
C      0.893666   -1.593342    1.424587
O     -0.924094    0.451683    2.626457
O      0.641123   -1.962497   -0.847122
O     -0.749853   -1.880780    3.781359
O     -1.711645   -3.578740    2.594359
O      1.934178   -3.526390    2.456019
O      0.656302   -3.890108    0.577999
O     -1.131493   -2.287075    0.378952
O      1.489274   -0.913143    2.412400
C     -3.815555    0.463158    1.013130
C     -3.939424   -0.143943   -0.345485
C      3.422442    0.564136   -0.167338
C      2.300793   -0.643140    1.560644
C      4.255888    1.088834    0.798462
C      3.147994   -0.103237    2.502852
C     -2.401160    0.893028    1.191170
C     -2.556377   -0.235700   -0.894051
C      2.429679   -0.313320    0.207537
C      0.507309    0.118718   -1.273269
C      1.509601   -0.911663   -0.793653
C     -0.253378    0.599235   -0.103024
N     -0.295061   -0.507227   -2.273306
N      4.101541    0.747598    2.094200
N     -1.655253    0.422223    0.043180
O      2.318031   -1.352146   -1.844389
O      0.414361    1.189704    0.785059
H     -5.722579    2.080330   -2.172393
H     -5.111526    3.557500   -1.406394
H     -4.346808    2.919824   -2.921096
H      5.515975    2.026449   -2.918652
H      4.327293    3.326157   -2.688538
H      5.568642    3.017857   -1.361066
H     -3.831514    3.377102    0.393243
H     -3.684546    0.177737   -2.344823
H      4.375908    2.089850    0.469305
H      3.374565    0.848440   -3.434274
H     -2.309316    2.135712    1.916351
H     -2.197280   -1.048993   -0.887819
H      2.835310    0.484243    1.438811
H      1.787670   -0.806309   -2.456054
H     -2.212568   -3.911325    3.427193
H      0.727467   -4.898325    0.617471
H     -1.555535   -3.137967    0.632210
H      1.016401   -0.617126    3.181521
H     -4.547341    1.300453    1.123244
H     -4.066893   -0.294689    1.783336
H     -4.592519    0.486061   -0.992374
H     -4.436050   -1.154023   -0.305805
H      3.568196    0.856158   -1.208373
H      1.525016   -1.327433    1.845242
H      5.035335    1.776355    0.512563
H      3.016125   -0.383472    3.541548
H     -1.960920    0.501897    2.138583
H     -2.355426    2.003734    1.279067
H     -2.511073    0.267320   -1.888718
H     -2.290736   -1.290041   -1.026024
H      1.029313    0.980038   -1.717711
H      1.025410   -1.778355   -0.343409
H     -0.307404   -0.023256   -3.188069
H     -0.251062   -1.530858   -2.310835
H      2.628599   -2.266146   -1.743985
