60

C      3.332744   -1.646755   -1.673240
C      1.704997   -0.062961   -2.720153
C      2.544995   -2.154697    1.821070
C      3.293334    0.109562    2.319613
C     -2.762325    0.483149    2.079400
C     -2.493764   -1.922009    1.844169
C     -1.294606   -3.068313   -0.904070
C     -3.043414   -1.605343   -1.750661
C     -0.061079    4.136278    0.225632
C     -0.770707    4.486297   -0.831203
C      1.135866    2.152536    0.889058
C      1.951413   -1.039982   -1.578918
C      2.998781   -0.850657    1.200749
C     -2.687271   -0.626227    1.077190
C     -1.540849   -1.704058   -1.441816
C     -0.252755    2.666735    0.516832
C     -1.490231    3.324557   -1.343005
C     -0.719268    2.142456   -0.785497
O     -2.780328    3.243587   -0.773939
O      1.707957    1.443109   -0.156916
O     -1.470896    1.072471   -0.869703
O      0.145117   -0.638134    0.755458
Si     1.629166   -0.250020    0.083331
Si    -1.237370   -0.367024   -0.130290
H      3.373931   -2.486229   -0.962666
H      3.471002   -1.948123   -2.729998
H      4.057115   -0.830826   -1.409025
H      2.201032   -0.451075   -3.627696
H      0.643527    0.157619   -2.853811
H      2.216639    0.888422   -2.426235
H      2.295725   -2.015716    2.909484
H      3.325282   -2.930866    1.701346
H      1.629878   -2.529673    1.348488
H      3.451918    1.140636    1.912347
H      2.567482    0.081817    3.139392
H      4.277771   -0.185883    2.748317
H     -1.727329    0.611664    2.498678
H     -3.034442    1.455506    1.635641
H     -3.397127    0.167430    2.904402
H     -3.228578   -2.699079    1.522557
H     -1.449433   -2.259099    1.792485
H     -2.713661   -1.774736    2.942306
H     -1.002514   -3.721329   -1.777963
H     -0.437341   -3.122619   -0.204751
H     -2.216699   -3.499685   -0.499966
H     -3.265684   -0.520180   -1.805317
H     -3.230010   -2.017082   -2.766291
H     -3.643838   -2.136367   -0.999282
H      0.557838    4.834680    0.777242
H     -0.823610    5.482810   -1.268216
H      1.009596    1.552911    1.802428
H      1.832747    2.979131    1.137695
H      1.222344   -1.869918   -1.681750
H      3.914283   -0.983491    0.619463
H     -3.635819   -0.693193    0.510489
H     -1.035610   -1.483173   -2.375069
H     -0.933232    2.606645    1.360065
H     -1.563592    3.288734   -2.449357
H      0.186179    2.049262   -1.450944
H     -2.735280    3.536516    0.172418
