60

C      4.013219    0.102266   -1.469486
C      2.741287   -1.947698   -1.896552
C      2.935877   -2.109493    1.362024
C      3.570398    0.302429    1.684639
C     -2.642060    0.316618    2.255838
C     -1.115723   -1.598056    2.658022
C     -2.186151   -2.631726   -1.590561
C     -3.922576   -1.492251   -0.263051
C     -0.738870    3.840147   -1.518204
C     -1.820380    4.107950   -0.796938
C      1.067669    2.182640   -1.072314
C      2.624532   -0.456730   -1.660718
C      2.483700   -0.676278    1.383687
C     -1.303318   -0.278013    1.908541
C     -2.517213   -2.037916   -0.215357
C     -0.377673    2.420472   -1.466639
C     -2.348041    2.895382   -0.149763
C     -1.301620    1.873636   -0.395190
O     -3.597792    2.522775   -0.634551
O      1.101410    1.421803    0.055160
O     -1.782790    0.659070   -0.855772
O      0.243261   -1.264682   -0.329677
Si     1.544490   -0.198301   -0.160503
Si    -1.267752   -0.661769    0.090623
H      4.559508   -0.367077   -0.652308
H      3.931355    1.200615   -1.413680
H      4.571995   -0.162438   -2.410004
H      2.408879   -2.224939   -2.935817
H      2.131941   -2.549695   -1.218049
H      3.805512   -2.283987   -1.814396
H      3.313805   -2.345486    2.377090
H      2.045276   -2.736685    1.171867
H      3.687563   -2.229976    0.580886
H      3.636653    1.144930    0.965976
H      4.532974   -0.259247    1.743404
H      3.423032    0.799195    2.688330
H     -3.215532    0.553600    1.346443
H     -2.502786    1.213649    2.903993
H     -3.223149   -0.418280    2.850683
H     -2.036778   -2.205875    2.430443
H     -1.025537   -1.411674    3.746559
H     -0.211833   -2.111265    2.286496
H     -2.103151   -1.840576   -2.362246
H     -1.207858   -3.149837   -1.530506
H     -3.007678   -3.306634   -1.926488
H     -4.315045   -1.523049    0.772829
H     -3.939364   -0.482623   -0.697866
H     -4.534621   -2.206795   -0.856964
H     -0.197718    4.595221   -2.074539
H     -2.270831    5.088735   -0.687690
H      1.468089    3.203502   -0.796738
H      1.674858    1.844921   -1.911761
H      2.182024   -0.016159   -2.568492
H      1.727796   -0.609805    2.221960
H     -0.459001    0.378281    2.207628
H     -2.400365   -2.839901    0.518694
H     -0.545540    1.916358   -2.443253
H     -2.478716    3.043372    0.959969
H     -0.745339    1.663175    0.544481
H     -4.084304    3.344171   -0.940192
