60

C      2.252156   -0.827195   -2.049311
C      3.930384    0.445217   -0.811990
C      1.830148    0.411107    3.294113
C      3.875870   -0.459092    2.148333
C     -3.064511   -0.964268   -2.154962
C     -0.897258   -2.038474   -2.444587
C     -2.392360   -1.794080    2.119714
C     -1.512986   -3.356294    0.479620
C      0.406062    2.194578    0.959816
C      2.865932   -0.633320   -0.696476
C      2.372619   -0.539984    2.253470
C     -1.554636   -0.809028   -1.915943
C     -2.291428   -2.076296    0.622174
C     -0.478610    2.317793   -0.285783
C     -2.705689    2.462505   -0.958992
C     -1.855073    1.939376    0.165979
C     -0.663016    3.753696   -0.704353
C     -2.086127    3.854293   -1.145277
F     -4.001505    2.687305   -0.526463
O      1.540305    1.562647    0.558928
O     -1.615961    4.515226   -0.038773
O     -2.047527    0.697337    0.584813
O      0.249506   -0.994181    0.436780
Si     1.569001   -0.105558    0.583694
Si    -1.248429   -0.610596   -0.062581
H      1.336955   -0.223924   -2.108320
H      2.954463   -0.482776   -2.809197
H      2.086164   -1.916871   -2.211945
H      4.097555    0.746325   -1.864754
H      3.593477    1.353041   -0.276428
H      4.900363    0.148551   -0.396904
H      2.319219    0.195697    4.272708
H      1.960745    1.469921    3.010593
H      0.755829    0.176049    3.444224
H      4.257809   -0.802565    3.146546
H      4.249944    0.534119    1.879449
H      4.207290   -1.237457    1.433479
H     -3.377813   -0.451245   -3.076835
H     -3.362528   -2.021019   -2.106863
H     -3.555062   -0.453913   -1.297164
H     -1.636844   -2.839860   -2.663750
H     -0.185110   -2.492996   -1.717560
H     -0.404711   -1.816221   -3.417493
H     -2.682644   -0.734042    2.273691
H     -3.118879   -2.468230    2.607304
H     -1.361586   -1.901890    2.519509
H     -1.727192   -3.848728   -0.476267
H     -0.423564   -3.209114    0.557599
H     -1.770213   -4.090700    1.291514
H     -0.088282    1.687977    1.786560
H      0.691793    3.225974    1.322230
H      3.370510   -1.551688   -0.397736
H      2.108907   -1.563771    2.554001
H     -1.239354    0.054428   -2.486349
H     -3.259027   -2.097218    0.125105
H     -0.095529    1.766971   -1.135534
H     -2.666269    1.885336   -1.876470
H     -2.078678    2.637204    1.035458
H      0.066467    4.225671   -1.365602
H     -2.401076    4.464250   -1.986739
