46

C      6.835803    1.856246   -0.132584
C      6.144401   -0.143135    1.122466
C      4.471731    1.288165    0.176298
C      5.129974   -0.939461    1.606017
C      3.458003    0.487726    0.662539
C     -2.021799   -0.826511   -1.975678
C     -0.637816   -1.179734   -1.613100
C     -4.333624   -0.362301   -1.199749
C     -1.233780   -0.751054    0.824281
C      2.780572   -1.507614    1.919864
C     -7.176388    3.444249    0.459428
C      5.778894    0.983603    0.398562
C      3.802160   -0.617350    1.372089
C     -2.880510   -0.302096   -0.878409
C     -2.595751   -1.167026    0.356175
C     -5.705902    1.273039   -0.177488
C      1.044966   -1.337386    0.165000
F     -2.625884   -2.499044    0.068742
N     -5.125947    0.145682   -0.131924
N     -6.573417    3.298055   -0.616418
N     -5.869545    2.299422   -0.965793
N     -0.290586   -1.089972   -0.240224
O      1.899322   -1.632533   -0.701352
O      1.474172   -1.272962    1.478863
S     -6.691891    1.807909    1.257871
H      6.536112    2.916308   -0.002849
H      6.970980    1.637070   -1.217105
H      7.817244    1.713995    0.351276
H      7.155842   -0.414161    1.316958
H      4.222952    2.166206   -0.386999
H      5.377280   -1.824800    2.173946
H      2.446901    0.786705    0.452987
H     -2.570832   -1.697770   -2.439483
H     -2.022485   -0.050914   -2.794684
H      0.093791   -0.556806   -2.205146
H     -0.435082   -2.228530   -1.950327
H     -4.497235    0.198065   -2.163281
H     -4.607357   -1.428450   -1.395783
H     -1.012765   -1.287580    1.756274
H     -1.211935    0.347320    0.957599
H      3.020587   -2.580095    1.667667
H      2.748925   -1.494388    3.041928
H     -7.811201    4.142316    0.996302
H     -2.573557    0.728085   -0.613662
H     -3.319852   -0.957987    1.162200
H     -5.385471    2.285994   -1.943296
