39

C      1.733434    1.376226   -0.183705
C     -3.444198   -0.730340    1.142124
C     -0.569895   -0.769996   -1.574210
C      3.046273    1.524838    0.139464
C     -0.322183    0.135337   -0.356827
C     -2.454652   -0.066498    0.249754
C      3.721734    0.456937    0.683601
C      1.733361   -0.802612    0.535721
F      3.688547    2.698280   -0.065879
N      4.958984    0.625218    0.978832
N      3.048669   -0.682777    0.869093
N      1.044558    0.212497    0.005231
O     -4.717783   -0.424306    0.699654
O      1.057052   -1.999890    0.739297
O     -1.128683   -0.347562    0.658943
S     -2.402413   -0.887950   -1.397809
C     -1.969971    0.527134   -0.059499
C     -0.798840   -0.402104    0.290385
C      0.444173    0.306275   -0.202033
C      1.671181   -0.474439    0.066244
O      1.635584   -1.592541    0.639907
O      2.877742    0.073887   -0.340741
H      1.199064    2.205706   -0.609118
H     -3.279788   -1.827885    1.080084
H     -3.318956   -0.344912    2.159872
H     -0.328740   -0.237352   -2.494196
H     -0.100692   -1.746830   -1.456331
H     -0.706915    1.128051   -0.644430
H     -2.559873    1.012453    0.145901
H      5.484248   -0.167389    1.389482
H     -5.381151   -0.339244    1.424309
H     -1.695792    1.570092    0.207342
H     -2.889237    0.192393    0.457447
H     -2.107621    0.409003   -1.163425
H     -0.777921   -0.618489    1.366234
H     -0.953746   -1.366729   -0.236266
H      0.472631    1.317652    0.225242
H      0.316532    0.423128   -1.311043
H      3.775284   -0.365262   -0.157605
