62

C     -4.502069   -0.832972   -0.302024
C      3.790841    4.476043   -1.759817
C      2.534290    1.724459    1.144498
C     -3.379526   -5.396216   -0.242454
C      1.256416   -5.101453   -1.395996
C     -1.384307    4.357128   -0.460961
C     -1.419100    2.995477   -0.205029
C     -1.408149    5.233995    0.611251
C      2.311709   -1.273572    0.594401
C      1.668632   -0.422263    1.616571
C     -1.497892    3.373464    2.092568
C     -1.109579   -3.866220   -0.519959
C      2.481440    0.900334   -1.400852
C     -3.510950   -1.359616    0.655231
C      3.633639    2.992282   -1.920944
C     -1.475618    2.489018    1.068349
C     -1.464811    4.755232    1.889625
C      1.347136   -1.118535   -0.581756
C      1.334629    0.417936   -0.547587
C     -2.259998   -3.273373   -0.095324
C      0.010596   -3.119950   -0.647657
C     -2.256291   -1.907832    0.191787
C      0.075415   -1.750244   -0.368147
C     -1.080459   -1.121485    0.054467
C     -1.420571    1.028238    1.314775
Cl    -1.486995    5.892880    3.216979
N      1.505804    0.801181    0.835848
O     -3.766922   -1.331888    1.875256
O      4.459436    2.414329   -2.662773
O     -1.555259    0.593122    2.486275
O     -3.446182   -4.019510    0.058677
O      1.158827   -3.725333   -1.076093
O      2.642849    2.297234   -1.292049
O     -1.220327    0.162794    0.329644
H     -4.194820   -0.828432   -1.347608
H     -5.419355   -1.503225   -0.281822
H     -4.812606    0.199628   -0.046997
H      4.880770    4.717849   -1.643306
H      3.332522    4.790865   -0.787631
H      3.372372    5.056021   -2.574600
H      2.183590    2.774320    1.153685
H      2.775892    1.539814    2.247075
H      3.504664    1.554429    0.654202
H     -4.325800   -5.877538    0.049170
H     -3.118241   -5.478580   -1.302338
H     -2.523698   -5.790509    0.381519
H      2.247695   -5.290382   -1.881733
H      0.461346   -5.452986   -2.082661
H      1.228768   -5.642613   -0.413823
H     -1.339964    4.780471   -1.467044
H     -1.406363    2.356307   -1.054236
H     -1.378970    6.320136    0.466466
H      3.239116   -0.759800    0.271810
H      2.568071   -2.288678    0.822118
H      0.707238   -0.745381    1.970803
H      2.298230   -0.247216    2.522900
H     -1.538193    3.027589    3.112043
H     -1.117069   -4.941345   -0.757221
H      2.116581    0.743989   -2.466328
H      3.411181    0.362131   -1.295877
H      1.850344   -1.527873   -1.458771
H      0.430043    0.866324   -0.923262
