74

C     -2.999664    0.242495    3.721730
C     -4.874621   -0.856906    2.481291
C     -4.755486    1.626489    2.655612
C      4.668139   -2.740367   -3.124350
C     -5.035374    2.870614   -2.318539
C     -2.313000   -3.865754   -0.758133
C      4.778380   -3.130869   -1.809973
C      3.867164   -1.678074   -3.421831
C     -5.543134    1.667200   -1.866890
C     -3.868907    3.333445   -1.751649
C     -2.721512   -2.830941   -1.569600
C     -2.101278   -3.617291    0.577303
C      4.084855   -2.452280   -0.810081
C      3.190328   -1.021150   -2.419373
C     -4.929239    0.922639   -0.879626
C     -3.238792    2.608461   -0.765540
C     -2.908503   -1.578899   -1.034541
C     -2.293093   -2.357932    1.097924
C      1.718854    0.464898   -0.694686
C     -0.569829    0.553052    0.285344
C      6.700332    0.815798   -1.587043
C      4.029387    2.144573    1.651094
C      3.272264   -1.377454   -1.098522
C      0.844751    1.054009    0.359870
C     -3.766928    1.404112   -0.328747
C     -2.697583   -1.316749    0.313524
C      5.689664    2.442237    0.303622
C      6.770406    2.868721   -0.434082
C      5.136587    1.217542    0.084389
C     -3.957444    0.347186    2.541881
C      2.536497   -0.652010   -0.102934
C      3.222380   -0.090678    1.075076
Cl     7.434014    4.450991   -0.102540
F      1.579065   -1.553758    0.416367
N      7.262143    2.039954   -1.376136
N      5.647897    0.437651   -0.846478
N      4.987248    3.007770    1.284300
N      4.094252    1.008243    0.916687
O     -1.396380    1.079908    1.245561
S      1.691095    0.569311    1.892448
Se     3.928295   -1.372574    2.327806
Si    -2.964728    0.392888    0.986622
H     -2.886412   -0.824136    4.025632
H     -1.994540    0.641614    3.416119
H     -3.408502    0.879291    4.527764
H     -5.912359   -0.513137    2.278683
H     -4.906340   -1.398458    3.441419
H     -4.592341   -1.562203    1.650464
H     -4.091282    2.462515    2.354859
H     -5.158341    1.772800    3.679008
H     -5.599126    1.564468    1.930445
H      5.212555   -3.268136   -3.927068
H     -5.572887    3.383879   -3.086987
H     -2.175441   -4.839558   -1.213533
H      5.420525   -3.976160   -1.599131
H      3.774040   -1.364144   -4.453167
H     -6.457071    1.266596   -2.284809
H     -3.476206    4.271599   -2.105943
H     -2.895072   -3.006541   -2.629452
H     -1.778576   -4.458475    1.192232
H      4.233786   -2.831009    0.185873
H      2.572509   -0.189613   -2.699585
H     -5.366872   -0.019580   -0.556337
H     -2.323139    2.975876   -0.323482
H     -3.232721   -0.748239   -1.665874
H     -2.118047   -2.184328    2.161351
H      1.018210   -0.031962   -1.430504
H      2.310658    1.210060   -1.246160
H     -0.977332    0.843264   -0.701693
H     -0.619857   -0.542128    0.336071
H      7.131076    0.189355   -2.352833
H      3.322634    2.393470    2.446979
H      0.882556    2.166048    0.281195
H      5.465411   -1.339528    2.314777
