86

C     -4.787643   -1.763673    0.942773
C     -5.096232   -1.449065   -1.524351
C     -6.732237   -0.654345    0.048214
C     10.905809    2.771865   -1.053194
C      3.296055   -5.415914   -0.496388
C     -5.093852    3.158938    3.821544
C     -5.633051    3.224637   -3.899766
C     10.938685    2.151615    0.195423
C      9.712921    2.797598   -1.749855
C      2.374026   -5.452850    0.521496
C      3.376959   -4.280330   -1.274198
C     -6.164710    2.702250    3.079986
C     -3.811797    2.916326    3.393957
C     -6.457171    3.156348   -2.805854
C     -4.435872    2.559230   -3.856924
C      9.815812    1.571579    0.739492
C      8.616992    2.215329   -1.186481
C      1.547588   -4.374043    0.758922
C      2.535397   -3.203952   -1.018541
C     -5.949431    1.995723    1.897882
C     -3.625042    2.218999    2.227712
C     -6.083323    2.434277   -1.693568
C     -4.079752    1.846005   -2.742274
C      3.989761    0.775096   -0.714110
C      2.758807    0.222910   -0.367560
C      0.086066   -1.539862   -0.937867
C     -2.176145   -0.524066   -0.552168
C      8.616692    1.594674    0.046459
C      1.610482   -3.228322   -0.005293
C     -0.654516   -0.299811   -0.626813
C     -4.689063    1.739299    1.447371
C     -4.908797    1.761032   -1.607389
C      5.071374    0.584020    0.136289
C      7.403499    0.983926    0.593861
C      3.632226   -0.653730    1.549402
C     -5.245651   -0.829462   -0.161552
C      0.708460   -2.109651    0.285166
C      1.307065   -1.044750    1.134762
F     -0.377367   -2.608576    1.048795
N      6.225663    1.077889   -0.139889
N      4.829170   -0.136258    1.247430
N      2.545459   -0.487517    0.740829
O      7.498101    0.409095    1.703991
O      3.525229   -1.381321    2.737880
O     -2.700845    0.680400   -0.260681
S      0.007018    0.245656    0.965563
Se     1.297393   -1.562780    3.020502
Si    -4.400809    0.804233   -0.116408
H     -4.242922   -2.652767    0.562982
H     -4.201433   -1.202093    1.729693
H     -5.648262   -2.188652    1.531027
H     -4.801563   -0.750378   -2.305692
H     -6.071056   -1.904983   -1.879214
H     -4.418678   -2.341151   -1.430437
H     -7.006350   -0.703082    1.125032
H     -7.188483   -1.620996   -0.348578
H     -7.199038    0.128074   -0.534587
H     11.765845    3.237579   -1.507216
H      3.975888   -6.254946   -0.720126
H     -5.333316    3.697137    4.728271
H     -5.879864    3.783894   -4.806865
H     11.900388    2.158935    0.698377
H      9.598369    3.260389   -2.738462
H      2.312902   -6.338819    1.125029
H      4.111218   -4.272708   -2.067920
H     -7.179472    2.864245    3.363951
H     -2.994025    3.271386    3.977841
H     -7.395105    3.671229   -2.834479
H     -3.779480    2.600522   -4.700127
H      9.850608    1.093442    1.712188
H      7.675433    2.225053   -1.711702
H      0.828577   -4.448324    1.585851
H      2.645180   -2.349014   -1.659677
H     -6.789488    1.634496    1.315455
H     -2.611224    2.024045    1.882473
H     -6.766947    2.426627   -0.887958
H     -3.134930    1.315684   -2.688244
H      4.119877    1.340352   -1.619936
H      1.918683    0.397119   -1.054418
H     -0.688203   -2.320406   -1.267434
H      0.763235   -1.482964   -1.818780
H     -2.444846   -0.982858   -1.512271
H     -2.310525   -1.286490    0.263003
H     -0.430175    0.448823   -1.427810
H      4.097315   -1.107821    3.548420
H      1.822464   -2.969245    3.230602
