68

C      2.964337   -4.504534    2.425640
C      4.313552    1.458370   -2.664875
C     -5.471759   -0.491838   -1.087707
C     -5.638802   -0.976410    1.373560
C     -2.525743    2.346213   -1.806097
C     -2.545655    3.025408    0.579397
C      1.276234   -1.712336   -0.774331
C      3.578783   -3.627627    1.382033
C      3.804012    1.015063   -0.173228
C     -1.559487   -1.705062    0.641240
C      2.529507    0.782874   -0.302158
C     -2.942833   -1.552257    0.645628
C     -5.250116    1.285627    0.569763
C     -4.606291    2.146460   -0.506591
C      5.995997    1.619604   -0.977155
C     -1.296953    0.526568   -0.067821
C      2.414018   -1.733605    2.017479
C      4.707775    1.371884   -1.248899
C     -0.742419   -0.664340    0.285419
C     -3.478122   -0.346160    0.289099
C      1.528989    0.419974    0.677627
C     -2.666095    0.683934   -0.064663
C      1.463800   -0.665114    1.626283
C      7.024961    1.956498   -1.899761
C     -4.952489   -0.190951    0.304131
C     -3.120568    2.055359   -0.459357
C      0.740563   -0.868532    0.327612
O      6.888709    2.042013   -3.117654
O      8.330309    2.227201   -1.418357
O      2.754449   -2.598735    0.972826
H      3.470147   -4.482146    3.416498
H      3.021970   -5.595078    2.125606
H      1.851101   -4.352754    2.545474
H      4.681198    2.411076   -3.154477
H      4.673599    0.617724   -3.292221
H      3.201340    1.517800   -2.827046
H     -4.757329   -0.160677   -1.858219
H     -6.407184    0.080884   -1.274980
H     -5.702756   -1.561697   -1.199657
H     -5.491811   -0.477150    2.365587
H     -5.462168   -2.050464    1.378500
H     -6.748430   -0.856807    1.166491
H     -1.945378    1.478319   -2.218429
H     -3.260841    2.645600   -2.579744
H     -1.774587    3.170946   -1.749529
H     -3.183801    2.964583    1.495336
H     -1.532215    2.649547    0.848794
H     -2.534614    4.026291    0.123149
H      1.121075   -2.795105   -0.678281
H      0.738326   -1.395049   -1.723382
H      2.343205   -1.414659   -0.963143
H      4.507230   -3.195143    1.784695
H      3.775547   -4.276047    0.485893
H      4.178039    0.922463    0.863852
H     -1.160371   -2.663417    0.929543
H      2.147549    0.876916   -1.343945
H     -3.534979   -2.405938    0.925398
H     -6.337823    1.409330    0.496562
H     -4.912678    1.551846    1.585711
H     -4.894767    3.186160   -0.307599
H     -5.010469    1.867320   -1.475544
H      6.231444    1.553402    0.091594
H     -0.621351    1.323290   -0.354055
H      1.976932   -2.361733    2.820197
H      3.363677   -1.329097    2.501203
H      0.863513    1.337083    0.918349
H      0.700476   -0.487815    2.472309
H      8.908523    2.944645   -1.889572
