68

C      2.251995    4.857900    0.923701
C      5.939644   -1.468765   -0.812738
C     -4.821060   -1.176605   -2.339877
C     -5.256040    0.950865   -1.244376
C     -3.596510    0.711089    2.114770
C     -2.426145   -1.374938    2.550318
C      1.678442    0.111518   -2.415151
C      2.238591    3.549683    1.682150
C      3.751636   -1.426018    0.481825
C     -1.104083    0.244387   -2.078914
C      3.343305   -0.317966   -0.151991
C     -2.466700    0.063433   -2.093260
C     -5.251851   -1.133652    0.080721
C     -4.437442   -1.456533    1.259883
C      5.404868   -3.126846    0.866620
C     -1.075718   -0.138705    0.232135
C      0.705405    2.517873    0.264676
C      5.054485   -2.059786    0.216150
C     -0.363487    0.146863   -0.904790
C     -3.146615   -0.224250   -0.914814
C      2.001475    0.272328    0.165260
C     -2.441944   -0.327355    0.265556
C      1.694021    1.598514   -0.383881
C      6.623887   -3.866394    0.713008
C     -4.598352   -0.406665   -1.025453
C     -3.193485   -0.624436    1.483962
C      1.092839    0.346098   -1.008883
O      6.725492   -4.915734    1.506035
O      7.697492   -3.695286   -0.102711
O      1.035200    2.870440    1.569006
H      2.656759    4.769089   -0.101303
H      1.272747    5.391274    0.959463
H      2.955240    5.549836    1.458254
H      6.296486   -0.461762   -0.462077
H      6.759958   -2.062169   -1.160343
H      5.311058   -1.215027   -1.714703
H     -4.998908   -0.459269   -3.158398
H     -5.708489   -1.811207   -2.241117
H     -3.901800   -1.782893   -2.563902
H     -5.671027    1.383831   -0.338703
H     -6.142066    0.808963   -1.934611
H     -4.552025    1.575572   -1.797793
H     -3.465335    0.714594    3.209881
H     -4.692782    0.841929    1.943038
H     -3.057584    1.565534    1.659423
H     -2.715242   -2.467270    2.572534
H     -2.727460   -1.001760    3.570511
H     -1.340819   -1.369283    2.457264
H      2.757623    0.115995   -2.383111
H      1.189674   -0.754639   -2.906681
H      1.392695    1.051099   -2.982305
H      3.101173    2.970192    1.353812
H      2.375121    3.801572    2.753185
H      3.087770   -1.865619    1.216970
H     -0.581645    0.475753   -3.012408
H      4.033637    0.092020   -0.855132
H     -3.032081    0.148788   -3.035132
H     -5.669639   -2.101739   -0.308414
H     -6.187501   -0.560933    0.376617
H     -4.111032   -2.540082    1.289932
H     -5.072311   -1.336903    2.172222
H      4.662053   -3.486742    1.617571
H     -0.512469   -0.215784    1.135326
H      0.715124    3.474835   -0.338331
H     -0.331774    2.187684    0.235765
H      1.640413   -0.048301    1.163879
H      2.540898    2.106736   -0.879292
H      8.664211   -3.984972    0.129171
