61

C     -5.393458    0.766029    1.356866
C     -4.925121    2.241144   -0.572126
C     -3.630380   -3.116568   -1.554806
C     -2.409738   -3.557048    0.514812
C      5.415732   -0.906997   -0.764465
C      0.839501    0.945216   -2.240220
C      2.953989    3.919151    1.174837
C      3.129267   -0.743162    0.453311
C      2.745497    0.402953   -0.061937
C      4.622603   -2.569901    0.770700
C     -3.328024   -0.619924   -0.063963
C     -1.997105    1.353562   -0.040331
C     -1.038323   -0.667535   -0.757225
C      0.726888    3.320100    0.894237
C     -4.339254    1.559672    0.672723
C     -2.384925   -2.757904   -0.795639
C      4.396845   -1.415523    0.153241
C     -3.209000    0.733706    0.189145
C     -2.235355   -1.311726   -0.537566
C     -0.887290    0.709064   -0.508343
C      1.463819    1.005470    0.291721
C      1.109887    2.387116   -0.203753
C      5.833820   -3.335218    0.568599
C      0.414403    1.293497   -0.792261
O      5.987098   -4.444175    1.178524
O      6.873327   -2.963549   -0.250039
O      1.814468    3.434014    1.785463
H     -6.015467    1.480121    1.970623
H     -4.932196   -0.020723    1.989106
H     -6.042933    0.300789    0.557840
H     -4.365807    1.963504   -1.491034
H     -4.856989    3.354122   -0.484908
H     -5.988272    1.976615   -0.702241
H     -4.457974   -3.370324   -0.844286
H     -3.969448   -2.300609   -2.244254
H     -3.429381   -4.002193   -2.183457
H     -1.417823   -3.513318    0.991910
H     -3.239385   -3.213357    1.133508
H     -2.562229   -4.619856    0.186255
H      5.092527    0.024864   -1.226776
H      5.576599   -1.631490   -1.595398
H      6.343293   -0.676555   -0.198397
H      0.431297   -0.005909   -2.565337
H      0.307394    1.734609   -2.851099
H      1.901409    1.120975   -2.406950
H      2.831932    4.917819    0.734358
H      3.441125    3.221170    0.478913
H      3.710903    4.056284    2.005074
H      2.418052   -1.191952    1.159018
H      3.391962    0.903894   -0.755596
H      3.869610   -2.956791    1.449149
H     -4.288047   -1.078958    0.128620
H     -1.925860    2.393177    0.157595
H     -0.236832   -1.280523   -1.127395
H     -0.086502    2.918724    1.566102
H      0.529262    4.365621    0.568296
H     -3.905304    2.383478    1.297328
H     -1.506609   -3.147498   -1.380698
H      1.083583    0.701215    1.290008
H      1.940596    2.846848   -0.826572
H      7.808345   -3.315233   -0.071856
