65

C      5.081458   -2.595795    0.916623
C     -5.576731    1.222914    0.569751
C     -4.844050    1.460953   -1.784705
C     -2.904096   -2.801709   -1.256633
C     -2.893808   -2.739297    1.193259
C      1.347666    1.205444    1.733063
C      3.376517    4.159674    0.250043
C      4.127773   -0.538135   -0.288349
C     -1.299070    1.751692    0.156339
C      2.873539   -0.806706   -0.039854
C     -2.650656    1.738754   -0.076315
C     -5.328756   -0.737978   -0.884119
C     -4.793251   -1.784229    0.047910
C      6.477990   -0.913944   -0.064408
C     -1.268051   -0.625649    0.219569
C      2.231849    2.513586   -0.762251
C      5.268936   -1.324705    0.231060
C     -0.604067    0.552676    0.303155
C     -3.317168    0.501225   -0.164910
C      1.745478   -0.076859   -0.538686
C     -2.617793   -0.659663   -0.012272
C      1.456713    1.285484   -0.854200
C      7.706371   -1.548590    0.172154
C     -4.751346    0.602358   -0.523853
C     -3.307041   -1.970710   -0.065422
C      0.876481    0.685922    0.429682
O      7.774710   -2.739738    0.684270
O      8.933378   -1.000336   -0.093055
O      2.677102    2.940640    0.455446
H      5.848236   -2.802287    1.683234
H      5.049160   -3.414059    0.164759
H      4.117407   -2.639080    1.485969
H     -6.559101    0.701118    0.683680
H     -5.805127    2.286383    0.324113
H     -5.100388    1.214477    1.551475
H     -3.809035    1.619877   -2.180498
H     -5.272922    2.443331   -1.477584
H     -5.512668    1.022218   -2.519933
H     -3.564484   -2.613337   -2.108050
H     -2.944820   -3.870768   -0.948777
H     -1.852703   -2.524040   -1.508422
H     -3.044201   -2.021977    2.024638
H     -1.850708   -3.072822    1.112382
H     -3.617651   -3.534991    1.297583
H      0.968177    2.230056    1.969741
H      2.455358    1.143953    1.868007
H      0.917863    0.563777    2.553223
H      2.672198    4.904999   -0.228215
H      4.272855    4.043420   -0.343594
H      3.591820    4.615206    1.248931
H      4.283109    0.322978   -0.945463
H     -0.804849    2.709253    0.240115
H      2.674482   -1.657377    0.604756
H     -3.161244    2.688855   -0.189304
H     -4.996905   -0.940272   -1.928843
H     -6.418948   -0.656313   -0.809636
H     -5.272146   -2.744830   -0.132233
H     -5.029341   -1.475275    1.077757
H      6.548158    0.077635   -0.571373
H     -0.692923   -1.541743    0.341575
H      1.605495    3.382124   -1.170700
H      3.069262    2.486635   -1.533815
H      1.043245   -0.857078   -1.106551
H      0.667422    1.388863   -1.710647
H      9.725837   -1.236189    0.528774
