50

C      4.122839   -0.905180    2.619749
C      4.199823    1.558385    2.842074
C      4.541026    0.491437    0.670613
C      0.585670    0.055292   -2.926516
C     -4.041797   -1.913797   -2.612120
C      0.101971    0.944697   -2.002496
C     -0.077514   -1.118822   -3.206370
C     -4.240306   -1.266415   -1.258650
C     -3.069617   -3.065188   -2.570839
C     -3.017810   -0.264854    0.559878
C     -0.660620    0.270738    1.300828
C     -0.522582    2.446476    0.351559
C     -2.016284    0.778045    0.890497
C     -1.055139    0.691335   -1.330562
C     -1.632541    1.623385   -0.322001
C     -1.249708   -1.380631   -2.528942
C     -1.748648   -0.474742   -1.582832
C      1.648353    1.427147    1.167113
C      3.747990    0.409141    1.970221
N     -2.959844   -0.676231   -0.835609
N      0.249797    1.379777    0.956298
O      2.277288    2.450636    0.814107
O     -1.760100   -2.618891   -2.961659
O      2.371051    0.402698    1.744747
H      3.885795   -1.703892    1.867367
H      5.223650   -0.938372    2.780664
H      3.551270   -1.080453    3.552102
H      4.082585    2.524934    2.355406
H      3.733112    1.573314    3.831142
H      5.306486    1.416046    2.997214
H      5.237877    1.354929    0.665411
H      3.813352    0.693500   -0.164025
H      5.058555   -0.444084    0.431701
H      1.513817    0.233890   -3.481324
H     -3.571924   -1.114572   -3.258408
H     -4.980101   -2.176238   -3.101791
H      0.647772    1.833761   -1.822375
H      0.331353   -1.805705   -3.945628
H     -4.926266   -0.409268   -1.418042
H     -4.622316   -1.980413   -0.505096
H     -3.397219   -3.922453   -3.176865
H     -3.001064   -3.399856   -1.506618
H     -2.775128   -1.192619    1.154278
H     -4.056110   -0.008426    0.840328
H     -0.405294   -0.581668    0.643184
H     -0.598794    0.023910    2.377308
H      0.024503    3.076638   -0.341284
H     -1.019491    3.012114    1.165417
H     -2.404031    1.530796    1.639955
H     -2.445687    2.239749   -0.695814
