65

C      5.557303    1.888948   -0.712607
C     -4.684572    0.584801    1.786296
C     -5.364371   -1.270917    0.374578
C     -2.048363    2.959158    0.434913
C     -1.905216    2.254469   -1.897184
C      1.655072   -1.846642    1.151690
C      0.798688   -4.651657   -0.942821
C      3.603702    0.486572    0.283826
C     -1.240404   -1.947442    0.416814
C      3.048086    0.155533   -0.832685
C     -2.602117   -1.652915    0.564811
C     -4.854243    0.883335   -0.691978
C     -4.046704    2.134579   -0.734895
C      5.290728    1.604247    1.630707
C     -0.838918    0.237132   -0.346536
C      2.586770   -3.165007   -1.223210
C      4.810382    1.323670    0.429250
C     -0.343996   -1.011358   -0.038408
C     -3.039878   -0.392114    0.243144
C      1.911750   -0.624841   -1.196355
C     -2.186339    0.570078   -0.213411
C      1.651453   -2.019413   -1.403297
C      6.452700    2.392877    1.938332
C     -4.471919   -0.050968    0.405527
C     -2.579142    1.954673   -0.580642
C      1.116698   -1.366860   -0.148382
O      7.198406    2.940697    1.083612
O      6.850097    2.616496    3.269703
O      1.958505   -4.343752   -1.578811
H      6.612864    1.503647   -0.604144
H      5.150769    1.675401   -1.698354
H      5.633712    2.994532   -0.565507
H     -3.710177    0.984082    2.184018
H     -5.343430    1.451899    1.727877
H     -5.133525   -0.141926    2.501041
H     -5.283312   -1.795533    1.365532
H     -6.422791   -0.920635    0.320274
H     -5.177989   -1.929033   -0.482482
H     -0.976801    3.188327    0.185272
H     -2.066938    2.563869    1.465686
H     -2.664928    3.871345    0.328234
H     -2.610263    2.838062   -2.523583
H     -1.043246    2.915775   -1.715667
H     -1.597561    1.309531   -2.401230
H      1.354259   -1.113473    1.957978
H      1.047233   -2.757808    1.430861
H      2.716394   -2.028753    1.239319
H      0.474235   -5.660622   -1.360130
H      0.922333   -4.762660    0.124685
H     -0.048763   -3.987704   -1.252033
H      3.152307    0.157321    1.189920
H     -0.875548   -2.942425    0.679257
H      3.597397    0.580330   -1.731714
H     -3.228056   -2.448143    0.925707
H     -4.732104    0.339968   -1.649341
H     -5.927071    1.182006   -0.602364
H     -4.441637    2.801268    0.085277
H     -4.324177    2.670363   -1.686064
H      4.748099    1.192540    2.478012
H     -0.151614    0.992061   -0.703543
H      3.427449   -3.078663   -1.987567
H      3.015273   -3.282505   -0.209264
H      1.194905    0.062739   -1.853275
H      0.798355   -2.290067   -2.102204
H      7.630189    3.221504    3.467532
