57

C      5.746426   -1.977172   -1.607204
C      2.772965    3.594868    0.790652
C     -1.563336   -5.475749   -0.555522
C      4.304264   -2.147373   -1.135686
C      3.053398    3.090838   -0.589455
C     -3.206222    2.290896    0.696391
C     -1.091488    3.177260    1.098179
C     -3.824800    3.482114    0.944224
C     -1.678657    4.406916    1.355861
C     -2.942440   -2.072005   -0.611066
C     -2.991380   -3.579069   -0.673028
C      1.530776   -1.410587   -0.206726
C      0.971118    1.217395    0.032261
C     -0.625563   -3.267316   -0.400821
C     -1.818900    2.088677    0.760049
C     -3.031198    4.550292    1.277749
C      0.274399   -1.034142    0.216778
C     -0.031601    0.325397    0.347469
C     -0.718090   -2.084286    0.538705
C     -2.109834   -1.608680    0.596939
C      2.533090   -0.539683   -0.518634
C      2.248440    0.813018   -0.396560
C     -1.393313    0.727771    0.620041
N     -3.645626    5.811257    1.540849
N     -2.297725   -0.221940    0.702469
N     -1.772835   -4.122762   -0.110576
O      3.786635   -0.874394   -0.938539
O      3.237102    1.712450   -0.702619
H      5.778408   -1.391961   -2.544649
H      6.284767   -2.931596   -1.663698
H      6.255949   -1.330538   -0.836751
H      3.671872    4.180893    1.142102
H      2.503044    2.817466    1.526733
H      1.957862    4.344913    0.781757
H     -1.802111   -6.139496    0.323469
H     -0.489319   -5.613947   -0.752493
H     -2.225169   -5.777825   -1.374581
H      4.367989   -2.760940   -0.204546
H      3.756349   -2.712584   -1.893248
H      3.904333    3.666424   -1.023908
H      2.176162    3.418502   -1.233258
H     -3.880230    1.451662    0.426127
H     -0.006984    3.120013    1.287356
H     -4.911178    3.569071    0.875254
H     -1.017231    5.252162    1.622528
H     -2.472807   -1.622191   -1.490851
H     -3.946340   -1.631662   -0.465847
H     -3.891146   -3.905296   -0.149719
H     -3.077511   -3.855396   -1.744049
H      1.763771   -2.468610   -0.307154
H      0.783394    2.265031    0.012467
H      0.273328   -3.857422   -0.178613
H     -0.659185   -2.931891   -1.469744
H     -0.421056   -2.483535    1.552921
H     -2.640225   -2.094581    1.472775
H     -3.632022    6.229139    2.490944
H     -4.120322    6.320207    0.746496
