52

C     -0.734804   -1.138075   -2.086979
C      1.781888    0.093624   -2.563485
C     -2.137877    2.427987   -0.807333
C     -3.010874   -2.291904    2.486169
C     -1.995669   -2.740182    1.670284
C     -3.397844   -0.958116    2.423587
C      3.635536    0.683821    2.013679
C      3.770472   -0.478518    1.288390
C      2.796775    1.549173    1.349754
C      2.985249   -0.315938    0.140193
C     -1.349226   -1.871050    0.779858
C     -2.766783   -0.101541    1.551904
C      1.491446    1.542393   -0.791862
C     -0.045865   -0.246369   -1.044558
C      2.389562    0.899499    0.157639
C     -1.756802   -0.574276    0.748973
C     -1.101571    0.390568   -0.170557
N      0.787282    0.733280   -1.723468
O     -1.945528    1.124911   -0.904859
C     -1.102202    0.389821    0.048536
C     -0.701247   -0.913086    0.147983
C      0.009009    1.170135   -0.118734
C      0.669774   -0.961170    0.043555
C      1.103699    0.322906   -0.120539
Fe     0.000000    0.000000    0.000000
H     -0.802768   -0.584290   -3.040438
H     -0.164426   -2.083801   -2.181735
H     -1.731148   -1.393176   -1.710219
H      1.750388   -0.984731   -2.601225
H      1.610787    0.423843   -3.641821
H      2.804659    0.441316   -2.351830
H     -1.230861    3.018966   -1.020888
H     -2.843329    2.742548   -1.643495
H     -2.664259    2.803605    0.100067
H     -3.496397   -2.990646    3.169688
H     -1.696380   -3.760373    1.715040
H     -4.208099   -0.625937    3.082860
H      4.139100    0.850601    2.970975
H      4.356820   -1.342996    1.541355
H      2.491435    2.532026    1.651065
H      2.924391   -1.087033   -0.590847
H     -0.563632   -2.306003    0.169619
H     -3.100964    0.931612    1.535987
H      0.803904    2.267783   -0.312238
H      2.167107    2.210700   -1.439067
H      0.607540   -0.876573   -0.453182
H     -0.549233    1.083271    0.533000
H     -2.106249    0.744027    0.092850
H     -1.328868   -1.776456    0.285086
H      0.017397    2.236550   -0.226975
H      1.290981   -1.840925    0.082782
H      2.147708    0.628199   -0.234543
