70

C     -5.194037   -3.176664   -1.823416
C      6.959487   -3.075338   -1.739100
C     -6.286887    1.642318   -0.889113
C      0.823735   -3.470131    0.055989
C     -4.656209   -3.926469   -0.635203
C      7.120878   -0.648442   -1.250164
C      5.975022   -2.005151    0.285267
C      0.914770    2.621639    1.576204
C      1.521716    0.760078    0.331086
C      2.208984    3.006977    1.645057
C      2.872736    1.149447    0.396587
C      6.865390    0.452330   -0.466264
C      5.713615   -0.910090    1.077160
C     -3.696432    3.552117    0.552130
C     -4.969451    3.525889   -0.197535
C     -3.441187   -1.342329   -0.119590
C     -0.755276   -1.194642    0.205135
C     -3.955475    1.630785   -1.266851
C      6.680778   -1.899458   -0.889985
C      0.506195    1.448478    0.899563
C      3.241058    2.275114    1.052459
C      6.158300    0.366190    0.717511
C     -2.873495   -0.112981    0.117948
C     -1.503888   -0.016773    0.285958
C     -3.693495    1.099410    0.137565
C     -3.123248    2.200909    0.935633
C     -1.373853   -2.410842   -0.039367
C     -2.733557   -2.507548   -0.206394
C     -0.924588    1.220867    0.740819
N     -1.717069    2.227566    1.023291
N      4.585115    2.726343    1.179497
N     -5.119787    2.479567   -1.161331
O      7.136431    2.568397    1.718595
O      5.583812    1.259566    3.141522
O     -0.592965   -3.574134   -0.118501
O     -3.272842   -3.761221   -0.446627
S      5.864014    1.734871    1.724063
H     -5.580179   -3.957237   -2.541538
H     -6.070742   -2.576017   -1.566775
H     -4.451907   -2.520960   -2.322289
H      7.870639   -3.607121   -1.404787
H      7.075706   -2.779222   -2.798418
H      6.112622   -3.790333   -1.596767
H     -7.192469    2.007685   -1.428082
H     -6.136716    0.595688   -1.197458
H     -6.545550    1.746328    0.199705
H      0.969883   -3.033612    1.066545
H      1.225477   -2.750274   -0.704422
H      1.309523   -4.439550   -0.050064
H     -5.235635   -3.563359    0.266990
H     -4.926702   -5.024757   -0.678791
H      7.688933   -0.508285   -2.177589
H      5.610284   -2.994000    0.598479
H      0.135786    3.229240    2.060479
H      1.389435   -0.095002   -0.302213
H      2.524551    3.913477    2.168300
H      3.637712    0.566200   -0.085917
H      7.230537    1.418972   -0.787180
H      5.151385   -1.021808    2.003968
H     -3.741605    4.195733    1.451913
H     -2.904851    4.029608   -0.098337
H     -5.813178    3.424678    0.533852
H     -5.187375    4.509667   -0.714790
H     -4.517979   -1.377388   -0.237877
H      0.278288   -1.214934    0.407514
H     -3.087354    2.233055   -1.605963
H     -4.211861    0.811509   -1.965764
H     -4.731643    0.879397    0.538946
H     -3.527180    2.036031    2.004127
H      4.803870    3.739947    0.918894
