70

C     -5.482561    3.499883   -3.676193
C      7.120052    2.386470   -2.317974
C     -5.163471   -4.329753   -0.505499
C      0.607362    2.708572   -2.155284
C     -4.952725    2.471400   -2.691906
C      5.839839    2.540119   -0.227376
C      7.306504    0.653340   -0.575867
C      1.574930   -0.415340    0.558422
C      0.890827   -1.477924    2.498491
C      2.906472   -0.421983    1.023056
C      2.147548   -1.513967    2.994231
C      5.478001    2.058777    0.990924
C      6.934235    0.172439    0.660662
C     -3.420209   -3.275029    1.687396
C     -4.930955   -3.323905    1.595241
C     -3.609409    0.733171   -0.967112
C     -0.909638    0.869121   -0.723795
C     -4.364741   -2.116813   -0.398341
C      6.739001    1.852707   -1.002227
C      0.540056   -0.926615    1.259983
C      3.188895   -0.971524    2.241195
C      6.025679    0.863278    1.448196
C     -2.989841   -0.139739   -0.110111
C     -1.589219   -0.062325    0.008418
C     -3.814196   -1.118330    0.628908
C     -3.056268   -1.785476    1.721078
C     -1.568449    1.739866   -1.586576
C     -2.918440    1.670616   -1.706956
C     -0.888893   -0.869632    0.989455
N     -1.679395   -1.612934    1.722640
N      4.471558   -1.061276    2.811291
N     -5.259164   -3.064304    0.197920
O      4.952361    1.326980    3.804705
O      6.815768   -0.301977    3.734729
O     -0.795486    2.663615   -2.303454
O     -3.548835    2.551568   -2.574776
S      5.586473    0.216879    2.996831
H     -5.397824    4.493070   -3.194733
H     -6.546290    3.275047   -3.891440
H     -4.879849    3.433733   -4.604292
H      7.176002    1.588249   -3.104806
H      6.408235    3.139465   -2.688403
H      8.119976    2.872845   -2.265677
H     -4.317118   -4.954692   -0.127988
H     -6.077673   -4.935901   -0.356806
H     -4.954670   -4.146698   -1.581156
H      0.920616    2.835864   -1.092069
H      1.049564    1.779100   -2.592150
H      0.947636    3.597636   -2.763174
H     -5.401021    2.617868   -1.688144
H     -5.195577    1.452088   -3.092956
H      5.397230    3.470515   -0.553229
H      8.012126    0.117142   -1.189147
H      1.454998   -0.053158   -0.431527
H      0.109307   -1.908598    3.112994
H      3.690057   -0.016056    0.429972
H      2.381762   -1.958197    3.980288
H      4.770743    2.565268    1.641037
H      7.383590   -0.760997    0.977498
H     -3.063651   -3.673862    2.675574
H     -2.923976   -3.803622    0.862913
H     -5.342897   -4.305094    1.890962
H     -5.319985   -2.521454    2.267095
H     -4.685969    0.716658   -1.095907
H      0.135131    1.012584   -0.618326
H     -3.565375   -2.590741   -0.974120
H     -4.986082   -1.478127   -1.092574
H     -4.702301   -0.568627    1.004107
H     -3.517912   -1.441036    2.703477
H      4.737530   -2.040224    3.148969
