98

C      5.595186   -2.200564    0.653569
C     -5.179167   -1.674564   -1.564037
C      3.076393    1.514542   -1.559130
C     -3.237984    0.682096    2.365953
C      4.349643    1.515021   -2.116908
C     -4.576610    0.491620    2.683052
C      3.686302   -0.303980   -0.203274
C     -3.548406   -0.381337    0.288804
C     -0.197191    2.364420    0.291461
C     -0.066484   -1.020716   -0.670404
C      2.720197    0.603698   -0.590453
C     -2.698163    0.252926    1.170441
C      0.308330    1.272636   -0.617220
C     -0.847169    0.264734   -0.494048
C      5.284629    0.594399   -1.704610
C     -5.395223   -0.146717    1.775837
C      4.942033   -0.320879   -0.737834
C     -4.894463   -0.589549    0.572477
C      1.401632    0.521665    0.057064
C     -1.273082    0.495366    0.916556
O      6.556828    0.591089   -2.258553
O     -6.757584   -0.365024    2.046969
O      5.902114   -1.238053   -0.339578
O     -5.730482   -1.236993   -0.344586
O      1.042294   -0.810682    0.118325
O     -0.953369    1.785330    1.271936
C     -5.697908    1.267200    1.917811
C      5.830217   -1.376554    1.669885
C     -3.020542   -1.610893   -1.097144
C      2.915714    1.863693   -0.806858
C     -4.015935   -2.425542   -0.563904
C      4.219062    2.046149   -1.281799
C     -1.873149    0.558922   -1.311698
C     -3.843525    0.214824    0.123448
C      3.683548    0.183612    0.647220
C      0.222581   -1.401797    0.119149
C     -0.791215    1.557804    0.726810
C     -2.899577   -0.288872   -0.779962
C      2.630351    0.930762    0.163227
C     -0.649285    0.876392   -0.621434
C      0.463706   -0.033520   -0.396818
C     -4.924887   -1.920627    0.312511
C      5.259199    1.290598   -0.786713
C     -4.833827   -0.585654    0.656817
C      4.986871    0.351562    0.186397
C      1.268234    0.709455    0.686053
O      1.479647   -2.064771    0.272949
O     -5.920770   -2.720652    0.850719
O      6.566065    1.457210   -1.247090
O     -5.776769   -0.098476    1.554287
O      6.035543   -0.400366    0.676058
O      0.574336    1.876779    0.949016
H      5.485969   -1.689009    1.624464
H      4.632241   -2.702042    0.404798
H      6.356132   -2.998386    0.702017
H     -5.899358   -2.344336   -2.083234
H     -4.903274   -0.871593   -2.247226
H     -4.254754   -2.300047   -1.400673
H      2.366512    2.231403   -1.886055
H     -2.595092    1.184010    3.079680
H      4.628579    2.226029   -2.873543
H     -5.013799    0.816331    3.603029
H      3.452313   -1.045984    0.561398
H     -3.164907   -0.724824   -0.641954
H      0.715588    2.800062    0.794235
H     -0.780986    3.131782   -0.216399
H      0.252062   -1.094735   -1.722776
H     -0.629506   -1.904134   -0.311754
H      0.469684    1.572755   -1.645948
H     -1.602451    0.435677   -1.253117
H      1.554183    0.911503    1.106999
H     -0.694569   -0.194295    1.572916
H      7.259825   -0.056690   -1.988202
H     -7.144596   -0.043963    2.932307
H     -6.416954    1.517363    2.724195
H     -5.819460    1.954787    1.072075
H     -4.681627    1.423050    2.342695
H      5.718860   -0.944400    2.688210
H      6.721048   -2.048495    1.675185
H      4.964945   -2.002017    1.408389
H     -2.360189   -2.114914   -1.789804
H      2.092805    2.449805   -1.185399
H     -4.086174   -3.476705   -0.836180
H      4.376591    2.795980   -2.045139
H     -1.571898    0.184231   -2.348761
H     -2.378762    1.545647   -1.591077
H     -3.840925    1.248461    0.443717
H      3.517148   -0.564827    1.411233
H     -0.290507   -1.512141    1.058649
H     -0.279293   -1.975412   -0.716079
H     -1.077130    0.884015    1.536672
H     -1.310090    2.519095    0.684523
H     -0.182427    1.743749   -1.254408
H      1.097429   -0.084306   -1.337290
H      1.342365    0.110024    1.617186
H      1.792068   -2.360946   -0.607538
H     -5.973230   -3.696135    0.588001
H      6.757722    2.146855   -1.959843
