72

C      3.472793    3.822866   -0.379592
C     -1.652359   -3.968371   -1.884386
C      5.870132   -1.713489    0.743423
C      5.433775    0.245195    2.162323
C     -1.752544   -0.681376   -3.456281
C     -4.370070   -0.199001    2.775954
C     -4.579871    2.002530    1.832711
C     -2.341730    1.002494    2.336250
C     -4.649361   -1.565017    0.120242
C     -4.692380    1.213111   -1.048402
C      4.263855    2.518047   -0.157393
C     -1.960724   -3.000447   -2.704377
C      4.105428    1.550546   -1.305669
C      2.055553    1.831656   -2.632972
C      1.873414   -1.498216    0.725446
C      4.782236   -0.823192    1.328604
C     -1.956373   -1.552788   -2.284075
C      2.740789    1.122470   -1.587117
C      0.565689   -1.753410    0.372545
C      2.630885   -0.547226    0.079733
C      0.767421    1.529299   -2.933668
C      2.001166    0.163794   -0.964618
C     -0.054765   -1.089655   -0.632360
C     -1.501836   -1.273965   -0.909328
C      0.667851   -0.130253   -1.292397
C     -3.734182    0.761683    1.751881
O     -0.071243   -2.747671    1.139910
O      0.179026    2.167156   -3.867667
O      3.910970   -0.314918    0.419775
O      0.188495    0.596055   -2.256083
O     -2.123692   -0.059613   -0.488061
Si    -3.672331    0.008195    0.042824
H      3.637769    4.253966   -1.353425
H      3.767706    4.484396    0.472131
H      2.396938    3.549721   -0.188990
H     -1.656536   -5.027259   -2.200601
H     -1.379972   -3.848201   -0.843630
H      6.486887   -2.177351    1.512698
H      6.531600   -1.065436    0.134018
H      5.412674   -2.445177    0.030849
H      6.027835   -0.157759    3.015333
H      6.108419    0.901859    1.584335
H      4.626779    0.854414    2.679319
H     -2.239865    0.305540   -3.378299
H     -2.441389   -1.159673   -4.307222
H     -0.791007   -0.734179   -3.982120
H     -4.303142    0.344065    3.748001
H     -3.780188   -1.122889    2.825460
H     -5.434216   -0.360686    2.499297
H     -5.077586    2.055836    2.855866
H     -5.407670    1.996772    1.121415
H     -3.963220    2.928600    1.769379
H     -1.749126    1.716841    1.775462
H     -1.887870    0.015282    2.502747
H     -2.574579    1.399399    3.381273
H     -4.133334   -2.378788    0.640192
H     -5.139591   -1.847614   -0.840321
H     -5.557232   -1.330037    0.771241
H     -4.416526    1.088192   -2.114215
H     -4.534971    2.227286   -0.662215
H     -5.737163    0.928559   -0.927558
H      3.877229    2.175376    0.815852
H      5.342772    2.852750   -0.071389
H     -2.239296   -3.222425   -3.756570
H      4.467828    2.117768   -2.213144
H      4.876829    0.744087   -1.277495
H      2.580723    2.602882   -3.170612
H      2.339362   -2.079594    1.557867
H      4.239700   -1.487476    2.068909
H     -3.159695   -1.458233   -2.111389
H     -1.893309   -2.032901   -0.234321
H      0.380416   -3.224400    1.885412
