64

C      5.730047   -0.182251    0.641753
C      5.628698    1.560416   -0.916874
C      4.376869   -0.379108    0.518584
C      4.252730    1.374713   -1.054723
C     -2.486708    1.133071    0.577424
C     -3.800520    1.100870   -0.148464
C      1.565802   -0.874222    0.250982
C      1.387871    1.021555   -1.297101
C      0.231714   -1.189223   -0.452782
C      0.053730    1.150650   -0.545449
C     -2.835360   -1.867678   -0.852927
C     -3.834560   -0.917314    1.167132
C     -5.729344    0.434603    0.974408
C      6.403907    0.801071   -0.077470
C     -2.546760   -1.307447    0.480986
C      3.592385    0.399791   -0.339979
C     -1.671055   -0.101148    0.509721
C     -3.664581   -3.092422   -0.877903
C     -6.647373    1.155157    0.056932
C      7.831509    0.952438    0.101233
N      8.519342    0.095267    1.004621
N      8.521251    1.825030   -0.515907
N     -4.565559   -0.030603    0.245606
N      2.214441    0.196687   -0.466541
N     -0.654484   -0.080214   -0.509887
O     -4.033254   -3.643408    0.174774
O     -4.033241   -3.629675   -2.127958
O     -7.735536    1.655887    0.439450
O     -6.302285    1.288438   -1.278358
Cl     0.685111    0.000000    0.000000
Cl     0.689876    0.000000    0.000000
Cl     0.686167    0.000000    0.000000
H      6.312568   -0.812871    1.325810
H      6.135000    2.340415   -1.493465
H      3.856136   -1.159780    1.092772
H      3.737647    2.030208   -1.747433
H     -1.976539    2.059477    0.232470
H     -2.748902    1.380009    1.653684
H     -4.318253    2.066904    0.140056
H     -3.631765    1.217645   -1.236512
H      2.180683   -1.787145    0.117420
H      1.400812   -0.648060    1.316033
H      1.746611    2.051790   -1.443647
H      1.119200    0.530949   -2.266643
H     -0.156229   -2.061636    0.113811
H      0.523229   -1.455652   -1.498090
H     -0.468571    1.962431   -1.095585
H      0.262656    1.582738    0.474988
H     -1.922756   -2.022046   -1.486379
H     -3.442398   -1.140945   -1.478530
H     -3.613842   -0.382568    2.118829
H     -4.400986   -1.801004    1.416824
H     -6.245527   -0.379581    1.521392
H     -5.343158    1.201807    1.705540
H     -2.056966   -2.126161    1.090892
H     -1.099938   -0.146776    1.488330
H      8.439229   -0.961807    0.956766
H      9.139799    0.445564    1.764208
H      8.105687    2.480191   -1.183092
H     -4.268051   -4.621700   -2.147240
H     -7.035054    1.306670   -2.004500
H     -0.685111    0.000000    0.000000
H     -0.689876    0.000000    0.000000
H     -0.686167    0.000000    0.000000
