58

C     -3.411483   -3.914206    0.915438
C     -1.252311    4.989444    2.833212
C     -5.852723    2.621447    0.923390
C      8.759064    0.759606   -0.854609
C      3.090111    0.634893   -1.688120
C      2.925972   -1.307551   -0.352706
C      4.465240    0.673613   -1.489257
C      4.308939   -1.263310   -0.156492
C     -1.146989    0.986588    1.239490
C     -1.174526    2.285752    1.757759
C     -1.843354   -2.533433   -1.554940
C     -1.533360   -3.557442   -0.491682
C     -3.459644    1.146071    0.822006
C     -2.018963   -1.982818    1.290279
C      2.296627   -0.346029   -1.130571
C      5.089483   -0.280963   -0.717479
C     -2.297897    0.397165    0.761918
C     -2.308957   -0.957768    0.213627
C     -1.445684   -1.163167   -0.994349
C     -2.336397    3.020624    1.812048
C     -3.496446    2.421056    1.328816
C      0.860141   -0.358012   -1.361895
C      6.548677   -0.249227   -0.502910
N     -0.035182   -1.238684   -0.680277
N     -2.124921   -3.310863    0.779895
O      0.393468    0.450382   -2.205412
O      7.121132   -1.120078    0.200312
O     -2.353053    4.303977    2.325236
O     -4.647013    3.181637    1.397458
O      7.342346    0.730135   -1.061900
H     -3.535306   -4.714263    0.130001
H     -3.545421   -4.412406    1.919692
H     -4.205068   -3.137494    0.804745
H     -0.853668    4.516580    3.730558
H     -0.447864    4.952063    2.046849
H     -1.445484    6.074421    2.981485
H     -5.927469    2.730095   -0.172685
H     -6.743940    3.157864    1.346837
H     -5.955490    1.582323    1.291612
H      9.020968    0.656903    0.211619
H      9.197043   -0.106084   -1.411976
H      9.197212    1.663304   -1.295243
H      2.589426    1.386192   -2.296400
H      2.331170   -2.072049    0.085407
H      5.064368    1.449119   -1.935124
H      4.785402   -2.016169    0.451367
H     -0.198672    0.445168    1.219701
H     -0.255152    2.756034    2.137884
H     -2.916365   -2.513266   -1.814708
H     -1.208327   -2.783136   -2.436582
H     -2.015286   -4.517674   -0.869062
H     -0.432008   -3.707753   -0.441454
H     -4.352311    0.684631    0.447689
H     -1.074476   -1.767304    1.839330
H     -2.844004   -1.856320    2.051328
H     -3.360899   -1.191383   -0.126527
H     -1.656062   -0.380100   -1.732256
H      0.325386   -1.898135    0.013308
