58

C     -3.629484   -4.081260   -0.602354
C     -4.088809    4.345517    0.925585
C     -5.815859    0.956411   -1.951563
C      7.958427    4.097542    0.196818
C      3.295614    0.817975    0.121793
C      4.638905   -1.109177    0.079542
C      4.442588    1.627174    0.140048
C      5.794470   -0.334707    0.096900
C     -1.719570    0.754742    1.443230
C     -2.457492    1.921942    1.303362
C     -0.777845   -2.105226   -1.557009
C     -1.561671   -3.395726   -1.463731
C     -3.060742   -0.282266   -0.132744
C     -2.098168   -2.862394    0.839779
C      3.382969   -0.545457    0.091520
C      5.688351    1.030550    0.127251
C     -2.001124   -0.376076    0.729618
C     -1.267789   -1.600612    0.852667
C     -0.189605   -1.868502   -0.158503
C     -3.500165    1.987759    0.443236
C     -3.823842    0.870718   -0.299057
C      2.229644   -1.436072    0.067778
C      6.862360    1.893854    0.145358
N      0.904088   -0.978023   -0.147826
N     -2.512154   -3.283887   -0.430583
O      2.380046   -2.682030    0.244260
O      7.996331    1.337159    0.128534
O     -4.284351    3.123160    0.250304
O     -4.862779    0.915462   -1.160902
O      6.804613    3.261517    0.179124
H     -3.638136   -4.913616    0.163999
H     -3.591123   -4.622158   -1.581640
H     -4.623386   -3.609740   -0.557748
H     -4.551552    5.184979    0.330283
H     -4.612389    4.350178    1.909048
H     -3.026785    4.612638    1.066838
H     -5.741650    0.360314   -2.948842
H     -6.262954    1.972035   -2.274385
H     -6.780030    0.460724   -1.535640
H      7.600918    5.146649    0.128855
H      8.476316    3.992232    1.170795
H      8.616526    3.889315   -0.676476
H      2.313044    1.265449    0.131242
H      4.784907   -2.181099    0.056998
H      4.283408    2.678573    0.164117
H      6.779557   -0.757313    0.086595
H     -0.912446    0.815351    2.156069
H     -2.210847    2.817944    1.887796
H     -1.328902   -1.254054   -1.941907
H      0.118954   -2.363497   -2.197509
H     -0.834663   -4.193530   -1.230127
H     -2.110047   -3.606304   -2.416287
H     -3.380315   -1.112659   -0.745448
H     -2.923522   -2.862235    1.557784
H     -1.390810   -3.660894    1.228322
H     -0.712573   -1.589136    1.836846
H      0.203917   -2.873929    0.102126
H      0.727625    0.053717   -0.305994
