72

C     -5.050527    1.203577    2.496026
C      3.648437   -1.761884    2.983837
C     -5.769722   -0.328657   -2.703633
C     -4.876223   -2.257404   -1.533366
C      1.035438   -1.093975    2.825392
C      5.727308    0.721808   -0.274247
C      3.743324    1.498101    0.871726
C      4.306864    2.373148   -1.294775
C      2.551940    0.543751   -2.844365
C      4.782289   -1.292391   -2.278483
C     -5.138245    0.885833    0.978275
C      3.018267   -2.129184    1.909901
C     -4.145397    1.740072    0.231723
C     -2.090980    2.350713    1.523051
C     -1.774910   -1.381511   -1.412343
C     -4.480286   -0.904051   -2.185313
C      1.618596   -1.734701    1.611022
C     -2.740959    1.525260    0.583230
C     -0.481497   -1.584549   -0.999274
C     -2.529310   -0.349046   -0.874017
C     -0.792757    2.055929    1.855747
C     -1.979206    0.495518    0.088553
C      0.115437   -0.773303   -0.038477
C      1.529552   -0.983370    0.332623
C     -0.665730    0.241219    0.460697
C      4.231582    1.065336   -0.455596
O      0.247017   -2.627534   -1.558182
O     -0.259606    2.849598    2.719253
O     -3.822678   -0.111862   -1.243228
O     -0.131625    1.065962    1.354828
O      2.284838   -1.246285   -0.705724
Si     3.443333   -0.284508   -1.356205
H     -4.719475    2.258304    2.572330
H     -6.061940    1.188317    2.954203
H     -4.306249    0.570769    3.000837
H      4.683439   -2.059387    3.197399
H      3.188276   -1.127153    3.738521
H     -5.611615    0.474822   -3.428337
H     -6.274975    0.132442   -1.818282
H     -6.390437   -1.139165   -3.140788
H     -4.880880   -3.078847   -2.245853
H     -4.251565   -2.434579   -0.625463
H     -5.906038   -2.113992   -1.166013
H      1.500798   -0.126152    3.030854
H     -0.065563   -0.987526    2.837212
H      1.293304   -1.710207    3.758601
H      6.238970    0.594674   -1.240496
H      6.190988    1.625760    0.223241
H      5.792677   -0.128425    0.396668
H      2.826237    2.142129    0.856565
H      4.529340    2.274706    1.219471
H      3.782779    0.760633    1.680513
H      3.299696    2.772118   -1.496610
H      4.899663    3.106942   -0.672063
H      4.912908    2.190938   -2.199467
H      1.729578    1.174882   -2.426319
H      2.143280   -0.226175   -3.496412
H      3.295449    1.220181   -3.258852
H      4.325575   -1.917478   -3.037265
H      5.380927   -0.512485   -2.791857
H      5.442415   -1.790692   -1.555739
H     -4.974291   -0.186503    0.961073
H     -6.165303    1.168327    0.680384
H      3.492192   -2.757588    1.148016
H     -4.388372    1.979546   -0.806928
H     -4.374611    2.782109    0.688820
H     -2.644605    3.165097    1.914697
H     -2.238490   -2.001200   -2.156255
H     -3.833596   -1.245284   -3.021016
H      0.998877   -2.702268    1.514196
H      1.799960    0.119277    0.727565
H     -0.213887   -3.228479   -2.263097
