72

C     -1.928197   -5.497821   -2.223931
C     -3.786175    4.907353   -1.282144
C     -1.184130   -5.713434   -0.925662
C     -4.964829    4.265776   -0.545003
C      6.211434    0.386780   -0.294296
C      5.165528    2.143497   -1.518918
C      4.971851   -0.023977    0.138713
C      3.919978    1.701151   -1.061389
C     -1.589048    0.676461    2.052152
C     -2.456180    1.344364    1.018901
C      2.463539   -0.899358    1.220155
C      1.323701    0.724594   -0.206350
C      1.140855   -0.658607    1.925409
C      0.234585   -0.359054   -0.202266
C     -2.451718   -2.915843    1.252133
C     -3.148244   -0.793149    0.062197
C     -4.769311    0.707141    0.853177
C      6.314148    1.492562   -1.140343
C     -2.452745   -1.433631    1.225635
C      3.796050    0.616665   -0.229434
C     -1.230017   -0.735186    1.697046
C     -1.845282   -3.581838    0.105767
C     -5.322336    2.058574    0.514486
C      7.623272    1.923983   -1.593343
N      8.763841    1.178852   -1.130927
N      7.843312    2.905956   -2.363220
N     -3.425336    0.552128    0.378147
N      2.566605    0.165420    0.242378
N      0.005933   -0.956621    1.066639
O     -1.420932   -2.962407   -0.867356
O     -6.487511    2.389316    0.844318
O     -1.753906   -4.970780    0.135750
O     -4.544837    2.975050   -0.177435
Cl     0.685462    0.000000    0.000000
H     -2.970475   -5.872251   -2.082875
H     -1.399710   -6.105146   -2.993622
H     -1.940418   -4.467125   -2.576947
H     -3.007683    5.124481   -0.529787
H     -4.071608    5.801818   -1.837188
H     -3.375289    4.097462   -1.928518
H     -1.322207   -6.788948   -0.658868
H     -0.116099   -5.463283   -1.083119
H     -5.153002    4.920457    0.330654
H     -5.871962    4.270492   -1.170627
H      7.106805   -0.134660    0.010734
H      5.204089    3.000862   -2.171781
H      4.973102   -0.899035    0.799768
H      3.071158    2.266629   -1.401221
H     -2.166887    0.675306    2.998916
H     -0.711311    1.325408    2.225399
H     -1.845830    1.895878    0.248207
H     -3.000987    2.183526    1.548344
H      2.467887   -1.884792    0.693514
H      3.284620   -0.845077    1.933989
H      1.487001    1.044133   -1.278091
H      1.008597    1.626782    0.327754
H      1.140237   -1.278009    2.841069
H      1.102504    0.394333    2.218965
H     -0.617132    0.073093   -0.709040
H      0.645159   -1.155977   -0.860956
H     -2.028648   -3.253932    2.228934
H     -3.536149   -3.249238    1.267323
H     -2.692158   -0.996673   -0.925015
H     -4.150023   -1.331669    0.000369
H     -4.786184    0.544996    1.955197
H     -5.457436   -0.034484    0.402551
H     -3.216084   -1.179741    2.097928
H     -1.050456   -1.228867    2.726651
H      8.893083    1.022063   -0.117674
H      9.449893    0.803707   -1.815279
H      7.069706    3.483566   -2.730656
H     -0.685462    0.000000    0.000000
