72

C     -2.932017    5.815661    0.514729
C     -7.483473   -3.346556   -0.109575
C     -3.523698    4.424197    0.597277
C     -7.526583   -2.214789    0.877872
C      6.817064   -0.968804   -0.717214
C      6.213329    0.302597    1.140084
C      5.545862   -0.771711   -1.259652
C      4.957826    0.513632    0.634037
C     -1.135023   -1.600088   -1.047962
C     -2.118006   -2.209320   -0.080687
C      2.792575   -0.326508   -2.317386
C      2.422541    1.040376   -0.296234
C      1.410777   -0.897727   -2.036097
C      1.184470    1.281566   -1.132002
C     -2.075909    1.116992   -0.706576
C     -1.908464   -0.282671    1.360215
C     -3.851096   -1.649463    1.520027
C      7.190029   -0.439039    0.497392
C     -1.157722    0.461462    0.264564
C      4.609885   -0.031039   -0.589092
C     -0.256478   -0.529794   -0.406584
C     -2.965573    2.120459   -0.073514
C     -5.096797   -1.777635    0.791527
C      8.514638   -0.634832    1.086587
N      8.775300   -0.030553    2.337263
N      9.411811   -1.318266    0.514113
N     -2.693907   -1.319527    0.819574
N      3.307411    0.203048   -1.082885
N      0.530578    0.064190   -1.430032
O     -4.051056    1.747966    0.442937
O     -5.133311   -1.628911   -0.446619
O     -2.664421    3.469626   -0.015241
O     -6.269748   -2.066528    1.456719
Cl     0.683883    0.000000    0.000000
H     -2.068427    5.944887    1.205905
H     -3.696419    6.547844    0.844119
H     -2.680145    6.070125   -0.533015
H     -7.946602   -4.262572    0.341272
H     -8.076221   -3.084649   -0.995715
H     -6.439545   -3.616057   -0.342215
H     -4.467362    4.412928    0.027759
H     -3.703367    4.143113    1.648720
H     -7.931660   -1.274727    0.448097
H     -8.238296   -2.487875    1.700394
H      7.512929   -1.559550   -1.287819
H      6.480386    0.739832    2.111498
H      5.308471   -1.218346   -2.237703
H      4.252119    1.112916    1.212668
H     -0.417915   -2.393290   -1.411807
H     -1.642541   -1.233406   -1.954111
H     -1.541432   -3.001766    0.473009
H     -2.874219   -2.744611   -0.680835
H      2.743014    0.492776   -3.096270
H      3.420894   -1.155404   -2.709085
H      2.203123    0.548836    0.671641
H      2.935293    2.001403   -0.052206
H      0.984609   -1.398054   -2.922590
H      1.594174   -1.698827   -1.263394
H      0.598785    2.037205   -0.572785
H      1.550770    1.752976   -2.077190
H     -2.710044    0.301707   -1.154680
H     -1.490386    1.505704   -1.558969
H     -1.135022   -0.721656    2.026049
H     -2.564187    0.448399    1.873410
H     -3.619793   -2.590338    2.112724
H     -4.007566   -0.887844    2.340609
H     -0.600893    1.254600    0.809708
H      0.376965   -1.085783    0.324585
H      8.824258    0.996236    2.436740
H      8.919646   -0.629354    3.165651
H      9.305789   -1.785390   -0.384776
H     -0.683883    0.000000    0.000000
