100

C     -3.647244    1.109048   -0.270528
C     -2.711969   -1.253793    1.341356
C      3.868981   -0.537098    0.076294
C      0.772029    1.477841   -0.209026
C      0.547732   -0.631165   -1.457348
C      2.135093    1.018051    0.196045
C      1.740958   -1.132975   -0.667596
C     -1.367401    0.984047   -1.263246
C     -2.480427    0.507946   -0.406316
C     -1.935554   -0.734365    0.196767
C     -0.164962    0.355080   -0.565796
N      2.684919   -0.013934   -0.625039
O     -0.645219   -0.312723    0.531858
C      3.298667   -0.369451    1.459903
C      2.294002    1.997944   -0.213557
C     -3.513641    0.732714   -0.040172
C     -0.540225    0.323274    0.575252
C     -0.711367   -1.384962   -1.148356
C     -1.764536   -0.456983    1.069488
C     -2.008258   -0.604737   -1.295885
C      1.286629   -1.378927    0.373336
C      2.382349   -0.379669    0.521096
C      2.188317    0.561645   -0.609074
C      0.255986   -0.544887   -0.372513
N     -2.701151   -0.462441   -0.053557
O      1.004000    0.223639   -1.225145
C     -0.350372    0.303339    0.506680
C      0.336652   -0.381803   -0.388379
C     -1.821647    0.322959    0.440355
C      1.789614   -0.411429   -0.336914
O     -2.516800    0.951953    1.257962
O     -2.469010   -0.375676   -0.557681
O      2.408155   -1.075037   -1.206825
O      2.508368    0.261024    0.629841
C      0.582150   -0.073592    0.621797
C     -0.435798    0.040560   -0.189210
C      1.888232   -0.610022    0.186824
C     -1.738248    0.579545    0.259934
O      2.819652   -0.692206    1.012927
O      2.112402   -1.022173   -1.098682
O     -1.945761    0.952161    1.416321
O     -2.776161    0.672502   -0.655374
C     -0.398267   -0.007130    0.293662
C      0.456017   -0.206473   -0.681749
C     -1.826648    0.144078   -0.011787
C      1.895679   -0.365060   -0.439615
O     -2.282492    0.093323   -1.162180
O     -2.736247    0.356454    1.028254
O      2.665819   -0.552449   -1.400664
O      2.426626   -0.312963    0.825592
H     -3.852859    2.019808   -0.804426
H     -4.446624    0.740376    0.363448
H     -2.124242   -1.270289    2.294295
H     -2.941486   -2.338072    1.140054
H     -3.698405   -0.777490    1.502662
H      3.551068   -0.652862    1.142380
H      4.033846   -1.553915   -0.316198
H      4.731256    0.132920   -0.048960
H      0.320094    1.983312    0.694793
H      0.792650    2.224951   -1.001251
H      0.944093   -0.140238   -2.381717
H     -0.077169   -1.476134   -1.751439
H      2.823125    1.894063    0.145486
H      2.117112    0.663043    1.247028
H      1.458230   -1.324088    0.390220
H      2.197447   -2.028019   -1.127093
H     -1.293932    2.062595   -1.348686
H     -1.484949    0.476320   -2.247745
H     -1.846191   -1.472239   -0.651478
H      4.063513    0.392456    1.499447
H      3.317310   -1.123362    2.223805
H      3.365232    2.288165   -0.197378
H      1.785051    2.615067   -0.992603
H      1.832786    2.232996    0.755020
H     -4.133622    0.734964   -0.944624
H     -4.151419    0.764342    0.863880
H     -2.901632    1.666840   -0.065941
H      0.033201    0.668788    1.441378
H     -0.921156    1.178503    0.009052
H     -0.880276   -2.333397   -0.599676
H     -0.304723   -1.543217   -2.163731
H     -1.497213   -1.498722    1.338622
H     -2.205583    0.087850    1.916445
H     -2.670882   -1.186572   -1.984040
H     -1.786644    0.342906   -1.808218
H      1.642213   -2.157712   -0.322602
H      0.917430   -1.751332    1.330821
H      3.025643    0.364278   -1.340472
H      0.182125    0.837096    1.271629
H     -0.201893   -0.915987   -1.154276
H     -3.350966   -0.052431   -0.970677
H      3.485774    0.535993    0.508286
H      0.446496    0.239540    1.640945
H     -0.307655   -0.272002   -1.215682
H      3.022495   -0.915157   -1.551282
H     -3.667803    1.100843   -0.428517
H     -0.063016    0.046460    1.312597
H      0.068856   -0.251699   -1.681207
H     -3.561770    0.963916    0.905572
H      3.355443    0.091543    1.011526
