63

C      6.140805    2.866781    0.266454
C      5.312372    2.093942    1.256791
C      3.948712    1.879646    0.687964
C      4.061914    1.091478   -0.618158
C     -1.522369   -3.147938   -1.441033
C     -1.335130   -4.095109    0.703331
C     -2.482873   -4.068342   -1.806450
C     -2.299484   -5.037078    0.369264
C     -3.167210    1.117176    0.780197
C     -4.377935    1.725455    0.495815
C      1.325314   -2.265745   -0.638279
C      2.684959    0.858606   -1.214538
C      2.322597   -1.226743   -0.173697
C     -2.191781    3.235869    1.078103
C      0.497027    0.071773   -0.846675
C     -0.391521   -0.017401    1.400469
C     -5.011357    5.254810   -0.014112
C     -0.944417   -3.147118   -0.203364
C     -0.429297   -0.726550    0.084417
C     -2.870821   -5.020343   -0.886279
C     -2.040972    1.831891    1.077803
C      0.095986   -2.156081    0.204238
C     -4.499651    3.111959    0.502390
C     -3.381843    3.852854    0.799513
N     -3.859597   -5.997748   -1.207680
N      1.838027    0.109435   -0.308917
O     -0.823921    1.288841    1.361210
O     -5.558114    3.979674    0.262881
O     -3.798882    5.187442    0.731722
Cl     0.686315    0.000000    0.000000
H      7.023292    3.261862    0.837359
H      6.473948    2.168306   -0.538644
H      5.558055    3.702389   -0.130462
H      5.205549    2.664225    2.219491
H      5.741051    1.111028    1.502720
H      3.318718    1.353919    1.418681
H      3.427378    2.849655    0.459903
H      4.673686    1.652396   -1.344807
H      4.584781    0.152813   -0.370465
H     -1.183301   -2.375818   -2.135534
H     -0.890570   -4.123662    1.709074
H     -2.919844   -4.048051   -2.780902
H     -2.623189   -5.789975    1.060742
H     -3.168225    0.043947    0.773383
H     -5.258928    1.161097    0.262045
H      1.136450   -2.115810   -1.729446
H      1.851288   -3.251265   -0.485025
H      2.274887    1.832580   -1.495357
H      2.812231    0.230039   -2.118597
H      2.529757   -1.450632    0.902227
H      3.233948   -1.359359   -0.794943
H     -1.319245    3.842531    1.310755
H      0.433438   -0.234389   -1.887200
H      0.100520    1.129378   -0.801212
H      0.687866   -0.035907    1.743024
H     -1.023107   -0.549367    2.166486
H     -4.780549    5.336978   -1.077880
H     -5.665638    6.067760    0.362027
H     -1.417919   -0.812290   -0.350047
H      0.412614   -2.355040    1.255632
H     -4.857170   -5.829417   -0.956899
H     -3.612309   -6.881359   -1.689508
H     -0.686315    0.000000    0.000000
