99

C     -5.674431    0.507067    2.118083
C     -4.730154    1.481990    2.411142
C      1.949310    0.535662   -1.359585
C      5.858770    0.056317    2.504843
C     -5.508759   -0.445501    1.138177
C     -3.575280    1.460262    1.656734
C     -4.163233   -1.480366   -0.674653
C     -2.679013   -1.587261   -1.049652
C      1.348222   -0.842750   -1.446738
C      3.391512    0.525071   -1.858905
C      5.161449    1.121617    1.967051
C      5.960920   -1.130397    1.819066
C     -0.840696   -0.119316   -1.895246
C     -4.330017   -0.450013    0.383603
C     -2.254301   -0.150784   -1.346281
C     -3.404686    0.509123    0.675031
C      4.675674   -0.177063    0.080595
N      0.012806   -0.828892   -0.976520
N      4.159726   -0.383515   -1.061278
N      4.594911    0.973504    0.779155
N      5.371170   -1.223215    0.627704
O     -2.233967    0.503784   -0.074868
C     -6.326891    1.010718   -0.867380
C     -6.457386   -0.361527   -0.941073
C      2.387199   -1.410890    0.499124
C      6.439992    2.253327   -0.103844
C     -5.168095    1.569131   -0.319755
C     -5.449043   -1.182824   -0.476891
C     -2.960330    1.356951    0.711513
C     -1.931066    0.448394    1.258811
C      0.930429   -1.692213    0.393311
C      3.114524   -1.468668   -0.805263
C      5.072803    2.245424   -0.235584
C      7.126915    1.060362   -0.157575
C     -1.201287   -1.179537   -0.496274
C     -4.156829    0.759116    0.146070
C     -1.971483   -0.974432    0.774361
C     -4.305397   -0.593130    0.064227
C      5.074181   -0.063522   -0.466510
N      0.177201   -0.818814   -0.445471
N      4.517309   -1.199045   -0.638649
N      4.424827    1.099880   -0.412279
N      6.411317   -0.058887   -0.338025
O     -3.309257   -1.405753    0.522630
Cl     0.688562    0.000000    0.000000
Cl     0.686154    0.000000    0.000000
Cl     0.684590    0.000000    0.000000
Cl     0.684171    0.000000    0.000000
O     -0.000573    0.361685   -0.000000
H     -6.572474    0.512732    2.695677
H     -4.896970    2.216443    3.188168
H      1.401084    1.273249   -1.944676
H      1.942796    0.915933   -0.305168
H      6.335403    0.138462    3.475072
H     -6.243912   -1.183298    0.929423
H     -2.798662    2.208068    1.848375
H     -4.543489   -2.458643   -0.354912
H     -4.650141   -1.115597   -1.626893
H     -2.565681   -2.199380   -1.965100
H     -2.103000   -2.048889   -0.242823
H      1.950322   -1.597723   -0.900967
H      1.309079   -1.097520   -2.543041
H      3.772621    1.575252   -1.820658
H      3.354767    0.246605   -2.917500
H      5.101478    2.024305    2.525887
H      6.496877   -1.983351    2.210977
H     -0.879818   -0.733240   -2.842670
H     -0.521037    0.883611   -2.163624
H     -2.949147    0.304895   -2.039606
H     -0.097604   -0.508918    0.012652
H      4.067573    1.772381    0.363950
H     -7.115361    1.635651   -1.233022
H     -7.347813   -0.799091   -1.359248
H      2.819480   -2.230049    1.136045
H      2.563109   -0.483568    1.069077
H      6.962040    3.194778    0.038482
H     -5.066458    2.634911   -0.264180
H     -5.504921   -2.254925   -0.515544
H     -3.253864    2.138176    1.475591
H     -2.494148    1.984518   -0.108389
H     -1.980326    0.511737    2.387485
H     -0.908827    0.858230    1.027521
H      0.496018   -1.592315    1.429662
H      0.731338   -2.741764    0.034120
H      2.669997   -0.821134   -1.585347
H      3.058086   -2.516405   -1.212473
H      4.546762    3.211179   -0.192416
H      8.212683    1.069873   -0.055023
H     -1.723140   -0.621530   -1.301478
H     -1.249327   -2.254359   -0.795575
H     -1.615435   -1.614001    1.615083
H      0.376666    0.177113   -0.391129
H      3.383808    1.118913   -0.511739
H     -0.688562    0.000000    0.000000
H     -0.686154    0.000000    0.000000
H     -0.684590    0.000000    0.000000
H     -0.684171    0.000000    0.000000
H      0.827746   -0.180667    0.000000
H     -0.827173   -0.181018   -0.000000
