99

C     -5.791941    0.041366   -2.234578
C     -5.246713   -1.239054   -2.172731
C      1.746588   -2.038625    0.987839
C      6.356821    1.363645   -1.496732
C     -5.153093    1.134157   -1.686460
C     -4.033415   -1.374212   -1.537335
C     -3.179993    2.082632   -0.435899
C     -2.736305    1.561196    0.928261
C      0.857871   -0.842251    1.306823
C      3.156232   -1.532065    0.725621
C      6.410095    0.493615   -0.431157
C      5.171146    1.529738   -2.162627
C     -1.432302   -0.346232    1.879844
C     -3.955799    0.981365   -1.062967
C     -1.682946    0.497844    0.659628
C     -3.378428   -0.276736   -0.979666
C      4.135314    0.023908   -0.762465
N     -0.464526   -1.364334    1.550266
N      3.093073   -0.626309   -0.389613
N      5.279240   -0.157296   -0.094814
N      4.077803    0.875324   -1.807469
O     -2.171408   -0.380802   -0.342326
C     -6.021138    0.809521    1.351587
C     -5.951430   -0.519297    1.711997
C      1.518120   -1.206744    0.884146
C      6.779658    1.694828   -0.745179
C     -5.050121    1.325569    0.488203
C     -4.926401   -1.298223    1.210018
C     -3.004398    1.081135   -0.918725
C     -2.710782    0.044089   -1.966288
C      0.955081   -0.004110    0.190943
C      2.993853   -0.941340    1.206849
C      6.254897    1.592543    0.522215
C      6.207731    0.953554   -1.750473
C     -0.698416   -1.190288   -1.117207
C     -4.038182    0.543240   -0.002804
C     -2.213975   -1.212873   -1.352229
C     -3.958229   -0.786333    0.350427
C      4.664418    0.074940   -0.210655
N     -0.421958   -0.203276   -0.123951
N      3.666769   -0.708257   -0.032143
N      5.207781    0.788189    0.777552
N      5.167483    0.158559   -1.481194
O     -2.921374   -1.516310   -0.174369
Cl     0.689709    0.000000    0.000000
Cl     0.683902    0.000000    0.000000
Cl     0.690401    0.000000    0.000000
Cl     0.692151    0.000000    0.000000
O     -0.002064    0.400419   -0.000000
H     -6.731095    0.199669   -2.717138
H     -5.800112   -2.049189   -2.622755
H      1.337604   -2.573178    0.112227
H      1.800497   -2.731128    1.849817
H      7.249044    1.890560   -1.778079
H     -5.583946    2.134709   -1.737451
H     -3.601229   -2.357024   -1.482526
H     -3.781761    3.000498   -0.350403
H     -2.238499    2.251149   -1.026787
H     -3.635091    1.139377    1.412492
H     -2.316689    2.378892    1.555100
H      1.218349   -0.326681    2.220904
H      0.885555   -0.094672    0.501666
H      3.843144   -2.347691    0.484566
H      3.553998   -1.031658    1.644155
H      7.330030    0.336058    0.119937
H      5.143429    2.224218   -3.007397
H     -1.146384    0.246502    2.761468
H     -2.379259   -0.906981    2.136989
H     -0.774941    1.015906    0.358445
H     -0.787997   -1.996992    0.794692
H      5.358040   -0.809218    0.717993
H     -6.818429    1.433230    1.735043
H     -6.710378   -0.908674    2.382494
H      0.982337   -1.431671    1.822279
H      1.469784   -2.087582    0.204497
H      7.613834    2.333490   -0.960329
H     -5.107030    2.380025    0.205777
H     -4.863919   -2.333873    1.482965
H     -2.117520    1.351782   -0.325484
H     -3.381547    2.036910   -1.397897
H     -3.717452   -0.196807   -2.427001
H     -2.049636    0.435591   -2.771867
H      1.007497    0.884720    0.886935
H      1.568809    0.254749   -0.698274
H      3.043771   -0.054952    1.881229
H      3.419650   -1.800995    1.764465
H      6.684278    2.164663    1.333213
H      6.605166    1.024363   -2.744669
H     -0.166349   -0.966528   -2.057652
H     -0.402056   -2.222249   -0.808487
H     -2.437120   -2.048588   -2.101808
H     -0.982046   -0.479986    0.734867
H      4.858970    0.753265    1.750481
H     -0.689709    0.000000    0.000000
H     -0.683902    0.000000    0.000000
H     -0.690401    0.000000    0.000000
H     -0.692151    0.000000    0.000000
H     -0.795080   -0.201041   -0.000000
H      0.797145   -0.199378    0.000000
