107

C     -7.003452    0.669008    1.101361
C     -6.136101    1.592951    1.635466
C      1.502848    0.347832   -0.114224
C      6.670857   -0.699131    0.642672
C     -6.593617   -0.300514    0.200036
C     -4.820516    1.516396    1.232211
C     -4.744332   -1.350702   -1.135343
C     -3.756642   -0.673973   -2.045822
C      0.291678   -0.112365   -0.932302
C      2.382605    1.129643   -1.044350
C      5.858688   -1.251969   -0.492110
C      7.032519    0.746210    0.281839
C     -1.720786   -1.334120   -0.860207
C     -5.265564   -0.344501   -0.179685
C     -2.591201   -0.178566   -1.223706
C     -4.370142    0.567441    0.336952
C      4.595607    0.913686   -0.234667
N     -0.591177   -0.877682   -0.092820
N      3.567104    1.623162   -0.394655
N      4.685005   -0.418586   -0.669937
N      5.745145    1.462476    0.412434
O     -3.060934    0.483847   -0.070541
C     -7.228421    1.076575   -0.297887
C     -7.458357   -0.214111   -0.761022
C      1.710025   -0.756366   -0.901630
C      7.019973    1.198888    0.313402
C     -5.985788    1.399339    0.219612
C     -6.431954   -1.114617   -0.684200
C     -3.640037    0.844374    0.863626
C     -2.964229   -0.360342    1.461954
C      0.304757   -0.339748   -1.212446
C      2.179239   -0.367684    0.478774
C      7.016655   -0.262221   -0.038089
C      5.806511    1.846545   -0.349840
C     -1.959268   -0.996953   -0.655003
C     -4.955301    0.494376    0.296768
C     -2.873068   -1.487629    0.440911
C     -5.181330   -0.781802   -0.162195
C      4.605397   -0.207571    0.437120
N     -0.575001   -0.936140   -0.253278
N      3.537796   -0.890361    0.584128
N      5.846050   -0.870455    0.576704
N      4.610158    1.172287    0.135217
O     -4.155728   -1.675954   -0.085565
Cl     0.684521    0.000000    0.000000
Cl     0.687879    0.000000    0.000000
Cl     0.687171    0.000000    0.000000
Cl     0.685638    0.000000    0.000000
O     -0.000757    0.373951   -0.000000
H     -8.042490    0.696085    1.394986
H     -6.497482    2.323260    2.328312
H      1.148740    1.067760    0.679920
H      2.013998   -0.504118    0.342116
H      7.589851   -1.291477    0.839953
H      6.015817   -0.648134    1.537866
H     -7.277106   -1.031053   -0.223084
H     -4.103815    2.232805    1.635272
H     -5.573870   -1.830420   -1.713163
H     -4.237099   -2.129276   -0.524467
H     -3.426571   -1.408798   -2.808707
H     -4.251660    0.183165   -2.559282
H      0.637125   -0.787658   -1.749292
H     -0.124445    0.794161   -1.366783
H      2.599912    0.524712   -1.969757
H      1.816619    2.018350   -1.457552
H      5.555091   -2.313512   -0.313147
H      6.423430   -1.181907   -1.468133
H      7.257719    0.791843   -0.805405
H      7.794925    1.174329    0.930857
H     -2.259266   -2.080829   -0.234480
H     -1.337754   -1.832154   -1.790187
H     -2.038255    0.589717   -1.810620
H     -0.906391   -0.375464    0.765387
H      3.837073   -0.831644   -1.159255
H      5.708314    2.339715    0.966815
H     -8.000368    1.836401   -0.328956
H     -8.441651   -0.426684   -1.152502
H      2.423343   -0.349777   -1.684056
H      1.837946   -1.873844   -0.984482
H      7.930527    1.714374    0.013586
H      6.808408    1.262748    1.416058
H     -5.776076    2.410172    0.590930
H     -6.584667   -2.117180   -1.035214
H     -3.012485    1.396136    0.131663
H     -3.768180    1.562078    1.719745
H     -3.588215   -0.706680    2.313292
H     -1.966037   -0.085612    1.787174
H      0.017591   -0.644873   -2.242706
H      0.226230    0.774606   -1.228081
H      2.096055    0.692031    0.710942
H      1.524709   -0.919396    1.213149
H      7.917872   -0.730052    0.366711
H      6.974206   -0.338541   -1.152931
H      5.703167    2.918187   -0.077955
H      5.914993    1.753068   -1.443434
H     -2.001265   -1.725419   -1.525526
H     -2.304833   -0.038255   -1.059956
H     -2.464747   -2.407342    0.872059
H     -0.393668   -0.681123    0.717225
H      5.962718   -1.761835    1.092451
H      3.736349    1.716381    0.263907
H     -0.684521    0.000000    0.000000
H     -0.687879    0.000000    0.000000
H     -0.687171    0.000000    0.000000
H     -0.685638    0.000000    0.000000
H     -0.823032   -0.187252   -0.000000
H      0.823789   -0.186699    0.000000
