48

C     -2.794108   -0.127779   -0.850018
C     -1.335579   -0.576644    0.930312
C     -3.235324   -1.426777   -0.800769
C     -1.765297   -1.863680    0.987246
C      1.082617   -2.326943   -0.983192
C      1.998663   -3.152632   -0.390300
C     -1.152040    2.377368    1.294785
C     -0.654953    3.764673    1.066063
C      2.429383   -0.407496   -0.558838
C     -0.303653    3.426683   -1.303915
C      0.053285    1.059378   -1.985487
C      5.235382   -2.173431    0.867723
C     -1.813398    0.345786    0.029405
C     -0.095738    1.975486   -0.828472
C     -2.734973   -2.312541    0.109777
C      1.272681   -0.935439   -1.082980
C     -1.395371    1.732808   -0.040522
C      3.155895   -2.597294    0.130814
C      3.352816   -1.241521    0.039373
N     -0.694720    4.243786   -0.241605
N     -3.202541   -3.637653    0.140898
O     -4.158446   -4.063235   -0.731051
O     -2.726865   -4.424898    0.984113
O      0.275926   -0.254079   -1.698833
O      4.242126   -3.189455    0.778959
O      4.566825   -0.951294    0.627795
Cl     0.684503    0.000000    0.000000
H     -3.197171    0.569620   -1.576907
H     -0.570108   -0.236461    1.628792
H     -4.000020   -1.726927   -1.514802
H     -1.372228   -2.561653    1.703434
H      0.185499   -2.776090   -1.384512
H      1.811570   -4.212295   -0.336278
H     -0.318704    1.785077    1.775533
H     -2.033195    2.326662    1.964444
H      0.384804    3.904445    1.484593
H     -1.283820    4.441652    1.718810
H      2.616520    0.636724   -0.623407
H      0.578939    3.801096   -1.833372
H     -1.141214    3.350863   -2.049973
H     -0.940996    1.111871   -2.542900
H      0.767269    1.475866   -2.762980
H      5.959840   -2.370360    0.054183
H      5.697953   -2.126916    1.860326
H      0.788570    1.974304   -0.192395
H     -2.227226    2.323120   -0.536956
H     -1.308877    5.046226   -0.449989
H     -0.684503    0.000000    0.000000
