51

C     -0.544638   -3.614063    0.523610
C     -2.999608    2.485742    0.595357
C     -3.781357    0.476671   -0.301150
C     -4.138444    3.144629    0.136662
C     -4.920263    1.111593   -0.765548
C      3.668707    0.361894    0.707115
C      5.037274    0.432262    0.868718
C     -1.786236   -0.508669    1.963886
C     -1.824776   -1.933013    1.510137
C      3.928342   -0.458514   -1.478621
C     -0.763756   -1.447959   -0.485763
C      0.794481    0.208116    0.351829
C      7.519865   -0.234297   -1.690716
C     -2.796044    1.141572    0.387540
C     -0.641621    0.006384   -0.157758
C     -5.110142    2.454486   -0.550649
C      3.081652   -0.084874   -0.469616
C     -1.558691    0.513314    0.906777
C      5.864614    0.043835   -0.179233
C      5.303942   -0.403635   -1.358322
N     -0.579717   -2.182947    0.773036
N     -6.296279    3.105784   -1.036650
O     -7.255668    2.403000   -1.720306
O     -6.486001    4.319612   -0.852174
O      1.724440   -0.161684   -0.648552
O      7.241823   -0.001201   -0.324564
O      6.330980   -0.735093   -2.258541
Cl     0.686236    0.000000    0.000000
H     -0.990913   -4.108291    1.406774
H      0.467206   -3.980300    0.272203
H     -1.256212   -3.782240   -0.336679
H     -2.266692    3.071787    1.129238
H     -3.692960   -0.576050   -0.502133
H     -4.291770    4.204112    0.304316
H     -5.690236    0.551935   -1.313214
H      3.037246    0.660261    1.512018
H      5.484276    0.779085    1.782357
H     -2.658027   -0.249046    2.620624
H     -0.911383   -0.453439    2.682160
H     -1.860958   -2.563764    2.428329
H     -2.638422   -2.211254    0.846073
H      3.507502   -0.813846   -2.415374
H      0.131914   -1.720382   -1.090951
H     -1.691485   -1.749515   -0.983433
H      0.932286   -0.413806    1.251467
H      0.938169    1.261671    0.648854
H      7.824826    0.712671   -2.209743
H      8.299296   -1.021381   -1.792424
H     -0.717545    0.614942   -1.103270
H     -0.968999    1.343906    1.425703
H     -0.686236    0.000000    0.000000
