48

C     -2.189990    0.784627   -0.774945
C     -2.651204    0.268346    1.489903
C     -2.670865    2.059721   -0.589080
C     -3.137763    1.532136    1.709598
C      2.525363    0.328745   -2.024156
C      3.542476    1.191153   -2.414390
C     -2.748481   -2.516060    0.224894
C     -2.176354   -3.836421   -0.226499
C      2.798558    1.063504    0.219683
C      0.058007   -3.171279    0.373993
C      0.603161   -0.832099    0.902709
C      5.756263    3.079639   -0.210526
C     -2.170928   -0.129743    0.254020
C     -0.503316   -1.863100    0.893647
C     -3.146458    2.439491    0.652061
C      2.138679    0.254660   -0.691078
C     -1.651531   -1.472631    0.011912
C      4.181485    1.984866   -1.483649
C      3.809485    1.926394   -0.141446
N     -0.797392   -3.730105   -0.654980
N     -3.638695    3.754470    0.830539
O     -4.107389    4.131212    2.050514
O     -3.641323    4.546753   -0.110486
O      1.139711   -0.603526   -0.359944
O      5.208790    2.931086   -1.526913
O      4.599363    2.815537    0.579748
Cl     0.691268    0.000000    0.000000
H     -1.821326    0.525392   -1.779226
H     -2.634035   -0.468187    2.312274
H     -2.687375    2.794584   -1.411821
H     -3.496917    1.797694    2.672310
H      2.028959   -0.291321   -2.763443
H      3.875520    1.281215   -3.439997
H     -3.680425   -2.239522   -0.305269
H     -2.947373   -2.607431    1.323825
H     -2.335980   -4.648977    0.514355
H     -2.759411   -4.137145   -1.133477
H      2.492490    0.998661    1.245924
H      1.045974   -2.976182   -0.127834
H      0.255106   -3.891069    1.201095
H      1.394024   -1.211734    1.570913
H      0.154021    0.111897    1.273462
H      6.517651    2.273732   -0.109247
H      6.151655    4.079686   -0.030946
H     -0.880609   -2.069234    1.915176
H     -1.325722   -1.569190   -1.034762
H     -0.475880   -4.690243   -0.878446
H     -0.691268    0.000000    0.000000
