66

C     -7.736870    2.447329    1.318950
C      8.199146    0.198297    0.796706
C     -7.487517    1.000573    1.034486
C      7.748950   -0.458933   -0.487513
C     -6.256140    0.491401    1.709938
C      7.551414   -1.937111   -0.332669
C     -5.002824    1.215669    1.288867
C     -4.767776    1.079427   -0.211997
C     -3.503395    1.828732   -0.556000
C     -3.215578    1.743119   -2.037533
C     -3.034682    0.320380   -2.459070
C     -1.898222   -0.386926   -1.762995
C     -0.628739    0.326570   -2.064441
C      0.607118   -0.283177   -1.450561
C      0.515156   -0.327433    0.060191
C      6.520208   -2.290447    0.706878
C      1.787039   -0.926861    0.521663
C      5.200506   -1.688252    0.299447
C      2.827663   -1.418614    0.889931
C      4.110590   -2.022915    1.317259
O      3.989261   -3.394861    1.437227
C     -0.652138   -0.112720    0.030925
C      0.810260    0.136524   -0.049050
O      1.529243   -0.851220   -0.388290
O      1.336929    1.384136    0.234917
H     -7.962696    2.948026    0.334957
H     -8.661311    2.608550    1.922538
H     -6.914748    2.909872    1.866895
H      9.165027   -0.261639    1.071182
H      7.424085    0.055017    1.549810
H      8.359255    1.276195    0.569290
H     -7.378850    0.784422   -0.061827
H     -8.339348    0.370928    1.367437
H      8.552749   -0.316269   -1.255322
H      6.873303    0.054409   -0.871914
H     -6.136673   -0.585829    1.506495
H     -6.384996    0.669901    2.805008
H      8.527430   -2.434348   -0.141175
H      7.125286   -2.296927   -1.316536
H     -5.006839    2.277383    1.543206
H     -4.141706    0.690036    1.778110
H     -4.716130    0.013698   -0.452653
H     -5.614218    1.524894   -0.758510
H     -3.644300    2.900783   -0.280468
H     -2.629503    1.447767    0.028707
H     -2.312803    2.333516   -2.279401
H     -4.126809    2.199547   -2.529226
H     -2.766872    0.282931   -3.559693
H     -3.984986   -0.252602   -2.318823
H     -1.823711   -1.415277   -2.158584
H     -2.102878   -0.491002   -0.674210
H     -0.464833    0.328000   -3.166149
H     -0.627734    1.391205   -1.719056
H      1.465190    0.338949   -1.776297
H      0.726530   -1.306479   -1.878539
H     -0.352144   -0.884753    0.416769
H      0.404286    0.717826    0.415525
H      6.382387   -3.397183    0.687308
H      6.826765   -1.940061    1.718739
H      4.883465   -2.178853   -0.651116
H      5.268432   -0.602434    0.136599
H      4.372862   -1.553370    2.290607
H      4.211727   -3.722795    2.363988
H     -1.208842    0.743984    0.441101
H     -1.003445   -0.325750   -0.984888
H     -0.812006   -0.974955    0.715285
