41

C      4.944115    0.972837    0.598291
C      3.437548    1.217519   -1.171089
C      4.441034   -0.879105   -0.699051
C     -6.240297    1.419466   -0.076693
C     -6.495928    0.080996   -0.351945
C     -4.930459    1.831108    0.193201
C     -5.434802   -0.831106   -0.352109
C     -3.897995    0.940774    0.191152
C      0.456944   -0.586526    1.243297
C      2.800988    0.110531    0.791430
C     -3.046407   -1.386693   -0.108254
C     -4.168801   -0.402075   -0.086040
C      1.608267   -0.615555    0.237793
C     -0.680490   -1.331324    0.604881
N      3.870594    0.288018   -0.129672
O      1.097514    0.090600   -0.878394
O     -0.503975   -2.501574    0.179692
O     -1.930272   -0.761824    0.468555
Cl     0.000000    0.000000    0.000000
H      5.879293    0.816646    0.019996
H      4.714112    2.039753    0.775690
H      5.091935    0.436804    1.572647
H      3.035462    0.665105   -2.034831
H      4.258377    1.888857   -1.493337
H      2.626164    1.866984   -0.756323
H      3.784866   -1.500671   -1.307302
H      5.235973   -0.515537   -1.414057
H      4.955211   -1.464733    0.067254
H     -7.031871    2.146748   -0.068932
H     -7.496056   -0.254421   -0.560056
H     -4.774187    2.889035    0.402110
H     -5.691397   -1.873744   -0.575435
H     -2.867679    1.273244    0.401166
H      0.719462   -1.137689    2.168365
H      0.141740    0.425564    1.510955
H      2.441762    1.124848    1.094809
H      3.188017   -0.363821    1.722451
H     -3.332064   -2.222710    0.573643
H     -2.806667   -1.740296   -1.126210
H      1.753831   -1.640302   -0.064924
H      0.846139   -0.515731   -1.611995
