100

C     -1.540704   -4.656493    1.534923
C     -0.645248   -3.736661    2.042063
C     -2.370176   -4.281389    0.494014
C     -0.581804   -2.468609    1.516637
C      6.394439    0.487970    0.949432
C      6.152941    1.592054   -0.006220
C     -3.300477   -2.751124   -1.089299
C     -3.793821   -1.581860   -1.545190
C     -4.375600    0.678270   -1.306390
C     -4.178118    1.966341   -0.834624
C      1.277566   -1.167769    0.181969
C      0.437006    0.964718   -0.807255
C      2.417147   -0.686724   -0.790966
C      1.686180    1.546311   -0.179789
C     -2.060895    1.380294    0.169319
C      3.847289    0.719158    0.556772
C      5.195031    0.380931   -0.014941
C     -2.308506   -3.021243   -0.031201
C     -3.410402   -0.256864   -1.038434
C      0.063410   -0.319884   -0.127654
C     -3.034221    2.309073   -0.106122
C     -1.396898   -2.114368    0.492080
C     -2.296772    0.124824   -0.319859
C     -1.131891   -0.737197    0.014791
C     -4.226476    4.998240   -0.059188
F     -4.187272    5.082805   -1.446738
F     -5.429937    4.500832    0.350550
F     -4.058386    6.249614    0.521605
N      2.773880    0.608620   -0.349329
S     -2.828329    3.973075    0.454505
C     -4.594331   -2.609880   -2.422050
C      4.740487   -1.528358   -2.963816
C     -3.421633   -1.821713   -0.409023
C     -3.243698   -0.545299   -2.380083
C      3.491675    0.217226   -1.704015
C      3.321670   -2.019311   -0.981638
C     -2.599642   -0.887548    0.250832
C     -2.444987    0.351700   -1.717842
C      2.640163    0.647086   -0.675739
C      2.486769   -1.622268    0.032015
C     -3.739604   -1.642650   -1.727774
C      3.826527   -1.088058   -1.855393
C     -2.086192    0.218164   -0.364608
C      2.135962   -0.271184    0.194254
C     -1.261045    1.190802    0.229181
C      1.267085    0.046053    1.270437
C     -1.283816    2.522010    2.234111
C      1.121458    1.670830    3.081122
C     -0.777255    1.243435    1.596013
C      0.762004    1.359589    1.644430
O     -0.871376    2.172901   -0.519240
O      0.848039   -0.911386    2.036887
O     -0.982671    3.590689    1.669591
O     -2.042928    2.478083    3.388801
O      0.845886    0.835036    3.980199
O      1.741018    2.844278    3.423580
O     -1.208433    0.191455    2.355929
O      1.158329    2.400918    0.889460
H     -1.591297   -5.675457    1.955546
H      0.020973   -3.978432    2.849485
H     -3.062231   -5.000546    0.107134
H      0.036209   -1.657946    1.896804
H      7.240150   -0.221386    0.787164
H      6.149529    0.604823    2.015274
H      5.817165    2.533495    0.435629
H      6.814094    1.713990   -0.879473
H     -3.688260   -3.630141   -1.560314
H     -4.520061   -1.632256   -2.330766
H     -5.258967    0.412763   -1.868490
H     -4.944507    2.691141   -1.054207
H      1.742363   -0.975309    1.138524
H      1.122034   -2.196107   -0.083000
H     -0.296911    1.648101   -1.092889
H      0.858814    0.625062   -1.858893
H      2.144034   -0.856958   -1.811887
H      3.249529   -1.388341   -0.548706
H      1.916804    2.542828   -0.604152
H      1.540972    1.686336    0.910333
H     -1.173344    1.590309    0.774122
H      3.824827    1.709924    1.051211
H      3.677057   -0.018395    1.394986
H      5.292062   -0.310442   -0.848896
H     -5.065507   -2.135684   -3.311457
H     -4.005659   -3.475020   -2.769495
H     -5.401024   -2.955648   -1.734105
H      4.331622   -1.216634   -3.934084
H      5.718543   -1.021152   -2.772145
H      4.929342   -2.618409   -2.888563
H     -3.793249   -2.672791    0.136414
H     -3.493541   -0.403900   -3.417638
H      3.873691    0.963135   -2.374353
H      3.591407   -3.059074   -1.106179
H     -2.410008   -1.120507    1.285552
H     -2.075915    1.197559   -2.260750
H      2.412926    1.687547   -0.607437
H      2.088397   -2.350491    0.720008
H     -2.316235    3.330360    3.828865
H      1.787831    3.201597    4.381472
H     -1.411961    0.419209    3.283331
H      1.409874    3.197303    1.390494
