50

C      3.408206    1.002538   -0.809927
C      3.357690   -1.323080   -0.768981
C     -0.749410    3.548812    1.489351
C     -1.947827    3.793324    0.874784
C     -0.248756    2.272556    1.552703
C     -1.422113   -2.336133    1.270327
C     -1.753305   -1.066558   -0.747448
C     -2.195243   -3.351338    0.759461
C     -2.513976   -2.073455   -1.243045
C      1.074070   -0.188968    0.661483
C     -2.629346    2.734152    0.327829
C      1.286494   -0.097040   -0.802692
C     -1.193454   -1.182482    0.519217
C     -2.742785   -3.218303   -0.502926
C     -0.365798   -0.113443    1.090392
C     -0.957466    1.241069    0.995819
Cl    -3.728877   -4.485880   -1.184202
N     -2.123801    1.504240    0.402236
N      2.648237   -0.159212   -1.190696
C     -0.566808    1.131555    0.325518
C      0.637166    0.904318   -0.110356
C     -1.561962    0.126443    0.556527
C      1.180768   -0.391705   -0.436752
O     -2.693008    0.549285    0.989409
O     -1.489010   -1.207575    0.386424
O      0.646360   -1.510143   -0.380226
O      2.527785   -0.463026   -0.897770
H      3.526502    1.724819   -1.647345
H      2.882166    1.535982   -0.003668
H      4.432428    0.708960   -0.471507
H      4.397460   -1.222436   -1.200178
H      2.974456   -2.277043   -1.129735
H      3.515056   -1.283383    0.332874
H     -0.190064    4.361659    1.927325
H     -2.359316    4.815177    0.816227
H      0.722678    2.074708    2.049759
H     -1.002201   -2.470492    2.270362
H     -1.547887   -0.142095   -1.278860
H     -2.412097   -4.277339    1.295240
H     -2.937137   -1.944350   -2.245922
H      1.420426   -1.210001    1.007699
H      1.715655    0.510638    1.221165
H     -3.567223    2.915350   -0.156102
H      0.682921   -0.884518   -1.328909
H      0.871036    0.868444   -1.192011
H     -0.327400   -0.304881    2.215915
H     -0.811806    2.207654    0.525811
H      1.311869    1.780509   -0.246863
H     -2.237543   -1.799976    0.005777
H      3.056191   -1.327338   -0.717498
