28

C      3.686160   -0.080902   -0.102341
C     -2.525048   -0.599604    1.528484
C      1.591213   -0.791500   -1.089151
C      1.458629    1.049911    0.507771
C      0.111603   -0.632929   -1.205154
C      0.137575    0.517983    1.032263
C      2.210888    0.031821   -0.257912
C     -1.916342   -0.634951    0.135712
C     -0.424037   -0.596160    0.217943
C     -2.466063    0.418282   -0.732305
O     -3.071637    0.171365   -1.807967
O     -2.331176    1.754921   -0.383918
H      4.046843    0.236832    0.878840
H      4.000610   -1.108470   -0.355723
H      4.162815    0.606409   -0.854663
H     -3.613736   -0.785325    1.389379
H     -2.127456   -1.427108    2.117712
H     -2.356125    0.393792    1.971869
H      2.166849   -1.522472   -1.632765
H      2.049882    1.450834    1.342367
H      1.221831    1.920238   -0.171450
H     -0.334664   -1.523144   -1.696097
H     -0.092656    0.301578   -1.756637
H      0.323256    0.215561    2.100703
H     -0.565969    1.363760    1.090425
H     -2.189433   -1.621518   -0.309217
H     -0.099893   -1.551432    0.692764
H     -3.053919    2.442228   -0.561226
