26

C      2.240753    1.140746   -0.265315
C      0.770549    1.520271   -0.540746
C      2.179912   -0.268502    0.289083
C      0.300039   -1.789190    0.330549
C     -1.879167    0.752142    0.810951
C     -1.248666   -0.036114   -0.281219
C      0.161658    0.202525   -0.575718
C     -1.188408   -1.497121    0.210613
N      0.794931   -0.451317    0.590773
O     -1.831713    2.118441    0.557102
O     -1.822558   -2.357669   -0.657250
H      2.818369    1.108420   -1.215938
H      2.675611    1.855436    0.460635
H      0.427187    2.277120    0.146044
H      0.764338    1.963454   -1.580042
H      2.761030   -0.348993    1.236397
H      2.591368   -1.019683   -0.410266
H      0.627534   -2.103797   -0.692642
H      0.537744   -2.507727    1.110562
H     -1.443768    0.580359    1.805764
H     -2.973055    0.501936    0.929283
H     -1.884686   -0.061755   -1.203828
H      0.437248   -0.338661   -1.502379
H     -1.625320   -1.618389    1.201027
H     -2.670978    2.576674    0.830287
H     -1.519951   -2.198607   -1.583729
