64

C      3.754056   -1.402055   -0.681019
C      3.370207   -0.959400    1.674230
C      4.524506    1.344844    1.125976
C     -5.707035    1.622058    1.530032
C     -4.756014    1.089997    2.380123
C     -5.378171    1.776810    0.197949
C     -3.496008    0.716930    1.913342
C     -4.106870    1.397203   -0.258070
C     -2.289586   -3.320316   -0.520768
C     -2.513407   -2.055804    0.035753
C      3.130705    1.776883   -0.765660
C      1.658223    1.692687   -1.004264
C     -0.548208   -2.313034   -1.825750
C     -1.274587    1.209997   -1.041282
C      1.606841   -0.492118    0.041220
C     -3.165868    0.871938    0.577315
C     -1.291687   -3.438438   -1.462536
C     -1.771692   -0.949297   -0.331061
C     -1.838823    0.467961    0.129638
C     -0.774717   -1.082384   -1.276268
C     -0.159237    0.232542   -1.473036
C      3.076752   -0.416282    0.283322
Cl    -1.012944   -5.019023   -2.157254
N      3.683109    0.834909    0.111416
N      1.051348    0.454223   -0.795071
C      0.283907    0.598408   -0.197993
C     -0.253751   -0.581174    0.054291
C      1.737416    0.702426   -0.228878
C     -1.727152   -0.684263    0.085105
O      2.280148    1.819423   -0.467978
O      2.546904   -0.400613   -0.001020
O     -2.286269   -1.785604    0.321010
O     -2.531855    0.423659   -0.143807
H      4.097674   -0.852345   -1.580871
H      4.692862   -1.768069   -0.183328
H      3.102708   -2.246636   -0.908993
H      2.763542   -1.908340    1.768821
H      4.419334   -1.284057    1.780348
H      3.000781   -0.306934    2.477046
H      4.689422    0.722438    1.999791
H      5.541033    1.520747    0.664417
H      4.210095    2.347019    1.486910
H     -6.690628    1.914642    1.887663
H     -5.046406    0.982893    3.413630
H     -6.112110    2.194526   -0.491798
H     -2.769629    0.303064    2.598023
H     -3.871987    1.522673   -1.284601
H     -2.893216   -4.171827   -0.207844
H     -3.314391   -1.987322    0.784287
H      3.690317    1.722364   -1.747121
H      3.354840    2.806965   -0.383100
H      1.473041    2.021661   -2.054260
H      1.127465    2.461168   -0.372856
H      0.214690   -2.470873   -2.564458
H     -0.854048    2.191923   -0.766532
H     -1.965814    1.237905   -1.890711
H      1.375452   -1.543828   -0.298865
H      1.098849   -0.438863    1.050188
H     -1.128484    0.532650    0.984438
H      0.023717    0.455629   -2.568504
H     -0.359260    1.432265   -0.370060
H      0.325898   -1.474331    0.239242
H      3.490812   -0.361861   -0.397840
H     -3.506799    0.311663   -0.455471
