23

C      2.675919    0.418683   -0.454078
C      1.629201    1.307071   -0.511195
C     -2.031486    1.519429    0.419548
C     -2.386668    0.097258   -0.026658
C      1.114737   -1.288441    0.096330
C      2.411533   -0.892979   -0.146520
C      0.319345    0.935272   -0.271701
C      0.057797   -0.378016    0.035858
C     -0.794946    1.865420   -0.329779
C     -1.310855   -0.871957    0.308106
O      3.428559   -1.855551   -0.070195
O     -0.661141    2.915633   -1.008817
O     -1.518388   -2.056166   -0.396981
H      3.683673    0.719969   -0.641518
H      1.788553    2.357702   -0.751094
H     -1.818362    1.426802    1.520408
H     -2.870988    2.172602    0.195734
H     -3.328134   -0.158580    0.502290
H     -2.636035    0.098068   -1.116327
H      0.919097   -2.327993    0.338380
H     -1.374523   -1.151357    1.394673
H      3.883445   -2.001134    0.828978
H     -1.180335   -2.851735    0.084557
