28

C      3.685724    0.592884    0.312263
C     -2.279275   -1.046893   -0.850826
C      1.416187    1.363780   -0.129222
C      1.721529   -1.002137   -0.347233
C      0.009727    0.961847   -0.510788
C      0.555898   -1.191855    0.605130
C      2.282177    0.354894   -0.048472
C     -1.840172   -0.440307    0.438436
C     -0.421341   -0.048105    0.525227
C     -2.719823    0.697304    0.750133
O     -2.271467    1.834282    0.956090
O     -4.120354    0.556111    0.832911
H      3.968022    1.620044   -0.001391
H      4.374590   -0.125540   -0.172857
H      3.865232    0.560477    1.418466
H     -2.623223   -0.273303   -1.586607
H     -1.550283   -1.692213   -1.338256
H     -3.184940   -1.663258   -0.642234
H      1.700304    2.390149    0.063845
H      2.480811   -1.788571   -0.126139
H      1.450807   -1.074922   -1.398758
H     -0.562575    1.875865   -0.541766
H      0.090282    0.438084   -1.489271
H      1.015468   -1.295910    1.615352
H      0.085052   -2.173536    0.395965
H     -2.057902   -1.198600    1.260350
H     -0.313121    0.507767    1.509012
H     -4.757336    1.261663    0.518666
