28

C     -2.880178    0.864032    0.707790
C     -2.599609   -1.426578   -0.104127
C      0.191458   -1.088632   -0.291964
C     -0.002369    1.203193    0.704064
C      1.630384   -0.852083   -0.341763
C      1.465123    1.213634    0.892315
C     -1.987248   -0.040119   -0.070747
C     -0.598741   -0.170680    0.567844
C      2.226319    0.184508    0.188454
C      3.684701    0.362930    0.101731
O      4.260303    1.354836    0.608393
O      4.485170   -0.565698   -0.548435
H     -2.631787    1.914734    0.433692
H     -3.932997    0.652200    0.384467
H     -2.820962    0.665259    1.777842
H     -3.651505   -1.399081    0.247874
H     -2.542332   -1.831236   -1.137875
H     -2.062310   -2.128870    0.550551
H      0.055041   -2.149604    0.076077
H     -0.170413   -1.115214   -1.354363
H     -0.476516    1.679602    1.589564
H     -0.286600    1.825771   -0.173127
H      2.248423   -1.580667   -0.850162
H      1.739576    1.168181    1.966733
H      1.861288    2.211716    0.540875
H     -1.848332    0.374794   -1.094996
H     -0.784153   -0.587187    1.581025
H      5.428264   -0.739742   -0.294089
