20

C     -0.002431   -1.806339   -1.733709
C      2.501906    1.089072    1.229970
C     -1.783321    0.815510   -0.348812
C     -0.045168   -0.942515   -0.734136
C     -1.363104   -0.601072   -0.161065
C      1.213162   -0.376306   -0.276670
O     -0.944878    1.686373    0.321819
O     -1.364188   -0.954154    1.207145
O      2.321618   -0.683743   -0.814185
O      1.289173    0.523792    0.763680
H     -0.924450   -2.225892   -2.090246
H      0.962848   -2.053408   -2.149844
H      2.502871    2.163238    0.942003
H      2.561539    1.061816    2.344512
H      3.390160    0.614690    0.792628
H     -1.776658    1.122984   -1.413829
H     -2.817565    0.953170    0.074542
H     -2.147687   -1.228503   -0.677771
H     -1.306845    1.994015    1.191696
H     -2.266979   -1.152729    1.532273
