20

C     -0.181230   -0.925788   -1.063052
C     -1.397941   -0.354327   -1.047844
C     -0.257808    0.427250    0.823883
C      0.726272   -0.153817   -0.169875
C     -1.373743    0.836074   -0.140940
C      1.754099   -1.035105    0.489993
N     -2.616760    1.040993    0.529485
O      2.557197   -0.237619    1.303262
O      2.587951   -1.513382   -0.533369
H      0.112834   -1.813112   -1.632306
H     -2.266985   -0.669584   -1.583092
H      0.141144    1.295649    1.359265
H     -0.610100   -0.352256    1.539361
H      1.180979    0.687249   -0.718224
H     -1.002490    1.746935   -0.659655
H      1.255985   -1.841305    1.028979
H     -2.667651    2.029369    0.868175
H     -3.390857    0.932905   -0.164056
H      2.587452    0.658746    0.876303
H      2.861652   -0.758876   -1.106294
