20

C     -0.311308   -0.155461   -1.449667
C     -1.553523   -0.251591   -1.002197
C     -0.205003    0.245156    0.817970
C      0.665769   -0.284686   -0.333621
C     -1.495249   -0.454491    0.455421
C      1.886574    0.555356   -0.543759
N     -2.629248    0.086378    1.157349
O      2.477417    0.111669   -1.740059
O      2.826688    0.403619    0.447177
H     -0.003331   -0.003353   -2.479964
H     -2.478972   -0.193635   -1.592582
H     -0.349608    1.351733    0.687455
H      0.192139   -0.030249    1.793866
H      0.901271   -1.332037   -0.066071
H     -1.368790   -1.549565    0.628259
H      1.593595    1.612190   -0.692432
H     -3.485717   -0.284679    0.691164
H     -2.623654   -0.325999    2.116694
H      2.882388   -0.798032   -1.583866
H      3.078560    1.297677    0.771559
