36

C      3.992201    1.808139    0.343495
C      1.173875   -2.349783    1.170842
C      3.173752    0.836597   -0.507534
C      1.023381   -2.120722   -0.293843
C     -3.249224    1.180338   -0.022425
C     -3.319246    0.088768   -1.076652
C     -2.587474    0.721926    1.242535
C     -1.932530   -0.367415   -1.485524
C     -1.489988   -0.294188    0.905525
C      1.818931    0.728489    0.174110
C     -0.965366    0.117687   -0.463438
O      1.036186   -0.246446   -2.211636
P      0.725303   -0.404140   -0.732296
H      3.424120    2.778908    0.291178
H      3.963709    1.434776    1.373182
H      5.003583    1.946417   -0.050878
H      0.219445   -2.697801    1.653171
H      1.544547   -1.480121    1.731355
H      1.928836   -3.169100    1.352295
H      3.625374   -0.172413   -0.491461
H      3.038644    1.213123   -1.525898
H      0.204023   -2.736412   -0.681317
H      1.964541   -2.456102   -0.809856
H     -2.818815    2.122556   -0.426204
H     -4.322431    1.434099    0.209880
H     -3.794485    0.566415   -1.971757
H     -3.942145   -0.713145   -0.675473
H     -2.024136    1.613513    1.646610
H     -3.281147    0.329928    1.999459
H     -1.978033   -1.493327   -1.490178
H     -1.693614   -0.077076   -2.520440
H     -0.711491   -0.328709    1.669561
H     -2.035171   -1.275141    0.796716
H      1.352502    1.748359    0.137284
H      1.912433    0.469890    1.238136
H     -0.980093    1.242111   -0.498522
