66

C      6.098628    2.524314   -1.528759
C      6.115134    1.182789   -2.270548
C      1.051995   -0.749584    4.203222
C     -8.143075   -1.487796   -0.935940
C     -6.890398   -2.005281   -1.184887
C      1.514547   -0.130109    3.059667
C     -1.240093   -1.893473   -0.107841
C     -2.258571    0.309447    0.574777
C      4.958514    2.320863   -0.525995
C     -1.967940   -1.821672   -1.452685
C     -3.048631    0.247634   -0.732512
C      6.822048    0.081440   -0.106266
C     -7.652023    1.797451    0.077832
C      2.289562    1.195956    0.303322
C      5.787798    0.248285   -1.151285
C     -0.179646   -1.359069    4.164581
C     -8.329592   -0.191695   -0.510457
C     -5.744291   -1.213015   -1.009361
C     -7.182880    0.572155   -0.344023
C      0.773281   -0.110366    1.890168
C      3.365987    0.367620   -0.225363
C     -0.464535   -0.722064    1.848335
C     -0.904128   -1.329886    2.992093
C     -4.430972   -1.773067   -1.276106
C      0.014215    0.230655   -0.240506
C     -1.009965   -0.539719    0.482872
C      8.114220   -0.459465   -0.635535
Cl    -2.461349   -2.117401    2.998751
F     -0.651848   -1.970633    5.270370
F      9.042750   -0.619708    0.406839
F      7.972028   -1.689045   -1.228927
F      8.673704    0.435923   -1.552406
N     -8.991009    1.790850    0.165554
N     -5.986704    0.029387   -0.597229
N     -9.377036    0.564742   -0.199184
N     -3.217426   -1.100632   -1.144815
N      4.595971    0.936091   -0.600134
N      1.099167    0.479254    0.640909
O      3.203406   -0.869838   -0.351794
O     -4.439896   -3.010520   -1.667930
O     -0.062405    0.603250   -1.435486
H      5.896009    3.369105   -2.215070
H      7.044570    2.694012   -1.014387
H      5.218696    1.153765   -2.958581
H      7.035283    1.043005   -2.804984
H      1.669944   -0.744085    5.112991
H     -9.014708   -2.113761   -1.076870
H     -6.772232   -3.034716   -1.520818
H      2.478193    0.348640    3.084338
H     -0.258355   -2.381652   -0.230449
H     -1.871635   -2.494826    0.552435
H     -2.919772    0.045349    1.400804
H     -1.948409    1.366361    0.702118
H      4.157010    3.017151   -0.804554
H      5.309280    2.623849    0.490386
H     -2.154758   -2.834218   -1.804503
H     -1.364413   -1.202197   -2.141625
H     -2.390366    0.795878   -1.483813
H     -3.915664    0.875832   -0.616723
H      6.457573   -0.584587    0.727079
H      7.029027    1.059211    0.418716
H     -7.038518    2.650597    0.308488
H      2.631945    1.837271    1.169015
H      2.021440    1.945834   -0.487478
H      5.485298   -0.742543   -1.556789
H     -9.643981    2.552656    0.452066
