142

C     -4.444640   -0.426154    1.602308
C     -5.282127    0.912592   -0.202858
C     -1.776014   -0.237342    0.324860
C      3.935806    0.639720   -1.167661
C      0.917171   -2.671024   -0.567329
C      0.060624   -1.046391   -2.006162
C      0.790130   -3.616655   -1.556438
C     -0.077912   -1.969421   -3.013687
C      2.729470    0.041324   -0.922202
C     -0.463850    0.553041    0.227400
C     -2.918369    0.773851    0.192392
C      3.740549    1.947218    0.764814
C      5.753436    2.207936   -0.634664
C      1.763278    1.778692    2.212642
C      4.466222    1.598119   -0.338086
C      2.499397    1.332391    1.017634
C      0.547763   -1.347427   -0.780797
C      0.292033   -3.271094   -2.784827
C      1.977323    0.377900    0.187560
C      0.723432   -0.360204    0.353807
F      0.168603   -4.223931   -3.770447
N      6.767060    2.707087   -0.875969
N     -4.202018    0.104203    0.275218
O      2.531373    2.697597    2.963319
O      0.603165   -1.076743    1.512623
C      1.087140   -2.432711   -4.041484
C      3.334269   -1.540416   -4.052356
C      0.640802   -0.652542   -1.750162
C      2.100745   -0.796446    2.186478
C     -0.566299    2.706801    0.831938
C     -2.752932    1.897142    0.542603
C     -1.146410    3.892669    1.200046
C     -3.367383    3.056307    0.905361
C      1.299999   -0.299494    1.170944
C      0.067489    0.590904   -1.162799
C      1.569143   -0.366705   -2.922925
C      0.066611   -1.251276    3.332012
C      2.189818   -1.808491    4.397362
C     -2.186005   -0.694244    2.404580
C      1.432176   -1.296020    3.319636
C     -0.735249   -0.747185    2.303233
C     -1.414184    1.639429    0.478709
C     -2.476161    4.122706    1.253340
C     -0.051016   -0.257418    1.184829
C     -0.789451    0.373518    0.050803
F     -3.087014    5.275618    1.610415
N      2.838462   -2.224767    5.306778
N      2.064369   -1.607793   -3.414424
O     -2.532034   -1.389309    3.601062
O     -1.825767   -0.480794   -0.387545
C     -8.310142    0.036075   -1.038846
C      8.122215    1.073368    0.270871
C     -6.208297    1.363165   -1.154045
C     -6.092781   -0.780331   -0.183210
C      5.824263    0.423769    1.078536
C      6.219832    0.637723   -1.243620
C     -4.851739    1.541738   -0.929505
C     -4.743025   -0.594411    0.036572
C      4.510424    0.085641    0.829051
C      4.898657    0.296842   -1.475972
C     -6.845682    0.201494   -0.784387
C      6.706035    0.706923    0.044197
C     -4.088681    0.565489   -0.328514
C      4.019271    0.014906   -0.454121
C     -0.518964    0.047029    0.698153
C      0.364524   -0.977777   -0.030405
C     -0.200002   -0.075834    2.147121
C      0.080721   -2.277763    0.618572
C     -2.659543    0.755072   -0.092596
C      2.632426   -0.340524   -0.748295
O     -1.113742   -0.372926    2.956120
O      1.094314    0.134616    2.608830
O     -1.047251   -2.834734    0.560545
O      1.096106   -2.907857    1.318152
O     -2.153283    1.861573   -0.467268
O      2.257867   -0.384262   -1.945975
O     -1.871729   -0.211443    0.509669
O      1.705652   -0.632474    0.219920
H     -4.165794    0.329785    2.337719
H     -5.504501   -0.734733    1.639150
H     -3.810735   -1.319220    1.730039
H     -6.198699    0.594529    0.373767
H     -5.041667    1.975774    0.001731
H     -5.515363    0.707173   -1.257287
H     -1.853564   -0.877691   -0.566694
H     -1.860817   -0.771859    1.289761
H      4.542643    0.382764   -2.042899
H      1.319954   -3.015044    0.385536
H     -0.235744   -0.033152   -2.216082
H      1.076333   -4.639158   -1.388517
H     -0.474274   -1.705272   -3.997256
H      2.416541   -0.713607   -1.656917
H     -0.501938    1.183316   -0.647971
H     -0.510008    1.165641    1.177372
H     -2.870197    1.517420    1.006383
H     -2.847264    1.309125   -0.767141
H      4.120186    2.701303    1.450032
H      1.232111    1.040743    2.784501
H      0.969001    2.502773    1.818564
H      3.176810    2.237388    3.542240
H      1.435082   -1.263285    1.990518
H      0.382597   -1.863136   -4.695254
H      0.420314   -2.844638   -3.232598
H      1.515656   -3.311187   -4.549618
H      3.281923   -1.231139   -5.121536
H      3.928823   -0.717880   -3.568082
H      3.953241   -2.452489   -3.914297
H      1.064017   -1.325290   -1.023023
H     -0.249748   -1.220871   -2.239496
H      3.166648   -0.804336    2.105094
H      0.509428    2.625458    0.811176
H     -3.447162    1.069691    0.261789
H     -0.512369    4.749775    1.476149
H     -4.422948    3.184213    0.937841
H      1.812769    0.150186    0.287035
H     -0.613257    1.031764   -1.962891
H      0.843459    1.384618   -0.941713
H      2.385067    0.331479   -2.617483
H      1.004992    0.162190   -3.715430
H     -0.458062   -1.637835    4.209538
H     -2.768785   -1.048470    1.587479
H     -2.432023    0.376831    2.727561
H     -2.896752   -2.292412    3.330263
H     -2.228949   -0.026005   -1.186212
H     -8.553722   -1.038922   -0.921017
H     -8.602613    0.439351   -2.016882
H     -8.904987    0.573166   -0.273135
H      8.437237    1.911048   -0.400912
H      8.772096    0.202851   -0.031668
H      8.339186    1.292837    1.321340
H     -6.814237    2.133981   -1.629351
H     -6.587462   -1.694716    0.109326
H      6.214650    0.480533    2.087047
H      6.899000    0.856137   -2.047083
H     -4.374379    2.478674   -1.235853
H     -4.126972   -1.356633    0.510340
H      3.824049   -0.134847    1.635827
H      4.564704    0.256124   -2.506131
H     -0.268584    1.052143    0.311012
H      0.125077   -0.990873   -1.114925
H      1.278568   -0.119546    3.587049
H      0.950942   -3.696396    1.931986
