48

C     -4.462312    0.567219   -1.111944
C      4.779809   -3.243821   -2.494267
C     -0.557343    3.536959    2.302563
C      0.129721    4.536884    1.613622
C     -0.427922    2.251217    1.837645
C      0.898724    4.231782    0.518974
C      1.961867   -0.053098   -1.882659
C     -3.146881   -1.372581    1.728433
C     -0.967345   -2.051253    2.610474
C     -3.498099   -0.073004   -0.208186
C     -1.770044   -1.347835    1.603308
C      0.343495    1.944897    0.739058
C      1.026177    2.939719    0.054923
C      1.500817    1.058640   -1.009915
C      1.956015   -1.282522   -0.998811
C     -1.264132   -0.659632    0.532826
C      0.660118    0.788639    0.051056
C      0.195897   -0.596829    0.347868
C     -2.134360   -0.028067   -0.363606
C      2.636456   -2.430313   -1.600467
N     -3.948699   -0.763986    0.862231
N      1.699025    2.384119   -0.971166
N      0.566369   -1.542320   -0.688267
O     -1.766336   -2.652072    3.570822
O     -1.569990    0.652162   -1.424589
O      2.161852   -3.542169   -1.865471
O      3.999376   -2.223202   -1.908625
H     -5.404970   -0.058020   -1.125567
H     -4.742766    1.601453   -0.761141
H     -4.105397    0.620348   -2.144905
H      5.075939   -3.027121   -3.522037
H      5.722129   -3.300331   -1.876315
H      4.231124   -4.186243   -2.355540
H     -1.166176    3.810677    3.175266
H      0.010884    5.547759    2.002458
H     -0.952297    1.467742    2.360127
H      1.433529    5.025183   -0.014081
H      1.199885   -0.165052   -2.701852
H      2.918760    0.128947   -2.366222
H     -3.601348   -1.915345    2.573871
H     -0.377735   -1.258805    3.159525
H     -0.196660   -2.730507    2.190571
H      2.471951   -0.994880   -0.047699
H      0.705238   -0.922474    1.281315
H      2.293327    2.932868   -1.640039
H     -0.029371   -1.337418   -1.523034
H     -2.328284   -3.389982    3.176646
H     -2.160016    1.121666   -2.088630
