23

C      3.392776   -0.474750    0.366465
C     -3.062826   -0.526835    0.205168
C     -1.047093    1.745502    0.400382
C      2.199946    0.162332   -0.268789
C     -1.884717   -0.893660   -0.671651
C      0.919455   -0.492570    0.251480
O     -0.084590    0.753095   -1.902441
P     -0.530819    0.279214   -0.518390
H      4.071194    0.299223    0.764581
H      3.071390   -1.171109    1.191319
H      4.002500   -1.075199   -0.363166
H     -3.422818    0.458822   -0.119497
H     -2.762498   -0.516625    1.292344
H     -3.833388   -1.310842    0.060997
H     -1.319167    2.566232   -0.302325
H     -0.207514    2.145168    1.021088
H     -1.929061    1.553033    1.046867
H      2.208296   -0.002468   -1.364483
H      2.161354    1.247403   -0.098530
H     -1.493029   -1.896024   -0.401719
H     -2.262892   -0.968507   -1.702573
H      0.907489   -1.559241    0.021700
H      0.906014   -0.322196    1.337570
