27

C     -2.988910   -1.040589    0.055444
C     -1.994322    0.717308    1.440460
C     -0.976469    1.404337   -1.599715
C      3.798755   -0.240227    0.410328
C      3.436547    0.410323   -0.742191
C      2.844427   -0.854878    1.194745
C      2.078912    0.421765   -1.079830
C      1.492302   -0.841192    0.854730
C     -1.686995   -0.495366    0.600011
C      1.135145   -0.187299   -0.302099
O     -0.776235   -1.261032   -1.802068
P     -0.582711   -0.151306   -0.764688
H     -3.720221   -1.061665    0.885674
H     -3.334682   -0.469915   -0.817121
H     -2.769906   -2.092099   -0.266877
H     -2.852750    1.289360    1.002425
H     -2.374967    0.335142    2.428021
H     -1.127274    1.343527    1.655851
H     -0.063701    1.734046   -2.149559
H     -1.253216    2.208298   -0.889622
H     -1.813003    1.227987   -2.302312
H      4.854401   -0.260893    0.692195
H      4.189466    0.889444   -1.351524
H      3.153960   -1.361452    2.098668
H      1.808437    0.936239   -1.987523
H      0.772733   -1.335354    1.496577
H     -1.249723   -1.264507    1.239999
