27

C      2.022224   -1.817112   -0.464859
C      2.826250    0.015419    0.997499
C      1.056051    2.221503   -0.324632
C     -3.726450   -0.345602    0.578472
C     -3.363263    0.928340    0.195151
C     -2.788999   -1.348633    0.620121
C     -2.067366    1.245199   -0.156559
C     -1.501619   -1.041298    0.272510
C      1.591669   -0.636818    0.412248
C     -1.130861    0.245091   -0.115417
O      0.709874    0.183888   -2.032701
P      0.581207    0.490666   -0.538537
H      3.080439   -1.691401   -0.765434
H      1.936642   -2.778242    0.075199
H      1.365369   -1.855545   -1.380053
H      2.559980    0.960189    1.475688
H      3.637934    0.094351    0.255651
H      3.203825   -0.683077    1.788420
H      2.033850    2.396692   -0.817491
H      0.311893    2.828747   -0.897687
H      1.022214    2.556634    0.721074
H     -4.735748   -0.587954    0.851324
H     -4.129462    1.685259    0.176230
H     -3.023584   -2.367237    0.914743
H     -1.750673    2.224842   -0.459234
H     -0.762608   -1.837186    0.306561
H      1.041214   -1.086716    1.266980
