62

C     -7.845765   -2.038026    1.945926
C      8.638948    0.492239    0.802162
C      1.111142    3.894229    0.094203
C     -8.905548    0.698407   -0.499082
C      7.177970   -2.644684   -0.824570
C     -8.738710   -1.062549    1.198531
C      8.141621   -0.942683    0.770453
C      1.650291    2.716132    0.049422
C     -3.607250   -0.368164   -0.419244
C     -3.398458    1.369245    1.128871
C      3.468252    0.979808   -1.504711
C      3.505427   -0.812025    0.100552
C     -0.720216   -0.737415   -0.247481
C     -4.976619   -0.384919   -0.270746
C     -4.758490    1.370324    1.292432
C      4.816170    0.814854   -1.689814
C      4.859669   -0.978965   -0.084238
C      0.632052   -0.829367   -0.453326
C     -0.524289    1.567993    0.140047
C     -7.928222   -0.252348    0.203211
C      7.708991   -1.226895   -0.629197
C      0.839029    1.510170   -0.060905
C     -2.789048    0.497057    0.266479
C      2.835904    0.161139   -0.610386
C     -1.353056    0.446760    0.054057
C     -5.594092    0.487254    0.592860
C      5.517469   -0.173285   -0.973455
C      1.416849    0.285252   -0.362856
O     -6.963831    0.533385    0.798798
O      6.853907   -0.288168   -1.198538
H     -7.288678   -2.694154    1.269086
H     -8.442340   -2.680599    2.612473
H     -7.174475   -1.426784    2.601228
H      8.571746    0.834148    1.872546
H      7.948063    1.099432    0.190939
H      9.669416    0.568612    0.420353
H      1.782419    4.775180    0.178941
H      0.056805    4.036628    0.047581
H     -9.481299    0.129370   -1.238248
H     -9.625834    1.105681    0.267872
H     -8.381353    1.566895   -0.933581
H      7.118531   -3.208108    0.126296
H      6.254929   -2.669914   -1.435488
H      7.913182   -3.253009   -1.441669
H     -9.321772   -0.454489    1.896254
H     -9.449761   -1.665202    0.598290
H      8.965152   -1.637966    1.070928
H      7.349966   -1.029842    1.530309
H      2.746432    2.632232    0.108446
H     -3.117044   -1.070152   -1.113860
H     -2.790627    2.085310    1.704329
H      2.955716    1.756696   -2.084674
H      2.961048   -1.451033    0.810759
H     -1.325401   -1.639328   -0.324841
H     -5.549816   -1.096858   -0.846787
H     -5.267377    2.058655    1.976377
H      5.352266    1.443007   -2.388600
H      5.317591   -1.752680    0.513974
H      1.085000   -1.776127   -0.686949
H     -1.063737    2.490398    0.386678
H     -7.492325   -0.965775   -0.511947
H      8.653478   -1.194981   -1.272599
