32

C     -0.523668   -2.266384   -0.976986
C      3.859943    0.874324   -0.750912
C      3.746534   -0.251108    0.039413
C      2.726287    1.575292   -1.105163
C      2.498873   -0.662303    0.466383
C      1.483839    1.139102   -0.661521
C     -0.619064    0.623986    1.448734
C     -2.096303    0.599338    1.551518
C     -2.325212   -0.835405   -0.269048
C     -0.869385   -0.842268   -0.577991
C      1.343319    0.014924    0.131040
C     -0.009286   -0.416491    0.584035
N     -2.850080    1.455347   -0.524401
N     -2.799214    0.378451    0.332849
H     -1.328391   -2.616086   -1.662628
H     -0.539665   -2.921861   -0.068649
H      0.433550   -2.331479   -1.522354
H      4.850863    1.205884   -1.093483
H      4.645646   -0.785671    0.305570
H      2.758362    2.463279   -1.722138
H      2.422033   -1.553315    1.090583
H      0.572972    1.663553   -0.919379
H     -0.203329    0.506644    2.491456
H     -0.312523    1.669928    1.159152
H     -2.425305    1.606604    1.944209
H     -2.476408   -0.121803    2.332242
H     -2.872509   -0.939951   -1.248744
H     -2.599081   -1.674010    0.392719
H     -0.651746   -0.205683   -1.474346
H      0.152235   -1.337970    1.202234
H     -3.837506    1.792430   -0.569450
H     -2.155783    2.192701   -0.324943
