56

C      3.655104   -0.717725    0.683726
C     -2.590655   -2.976503    0.318869
C      5.402208    1.926536   -2.706288
C     -6.131937   -0.253766   -0.541887
C      6.085515    3.343317   -0.136715
C     -6.633381   -1.433627    1.838198
C      0.711286    0.037226   -0.207922
C     -0.550829   -0.251598    0.398162
C      1.788338    0.279023   -0.702199
C     -1.627388   -0.492368    0.892206
C      3.079796    1.988554   -1.762104
C     -4.024030   -0.082623    0.721217
C      4.989964    1.261056    0.200622
C     -4.546623   -2.644506    1.831580
C      4.215957    0.182329   -0.428732
C     -3.124827   -2.265981    1.523656
C      4.470618    2.576677   -1.747421
C     -5.015019   -1.031138    0.114267
C      3.094778    0.549845   -1.313872
C     -2.936191   -0.771975    1.485594
N      4.910770    2.551994   -0.382239
N     -5.535426   -1.947428    1.078683
O      3.114344   -0.213351   -2.508125
O     -2.897925   -0.339635    2.832024
H      4.434197   -0.993252    1.402429
H      2.904420   -0.087540    1.240194
H      3.095712   -1.566248    0.275793
H     -2.239820   -2.308543   -0.486290
H     -1.752689   -3.692504    0.567406
H     -3.402622   -3.637461   -0.087552
H      6.099298    1.264429   -2.117677
H      6.066244    2.644442   -3.242148
H      4.932814    1.285753   -3.452221
H     -5.636982    0.418918   -1.302417
H     -6.780264   -0.957286   -1.099624
H     -6.678389    0.388216    0.160237
H      6.948697    3.044919   -0.756544
H      6.385816    3.148767    0.926283
H      5.908783    4.434708   -0.256045
H     -6.823658   -2.026899    2.747915
H     -7.574848   -1.524040    1.226208
H     -6.550693   -0.340479    2.059943
H      2.485340    2.556031   -1.014489
H      2.577977    2.097155   -2.730893
H     -4.504666    0.709424    1.333160
H     -3.554099    0.474534   -0.141447
H      4.718205    1.369880    1.293184
H      6.083715    0.977041    0.235514
H     -4.762900   -2.570185    2.924213
H     -4.649341   -3.740180    1.601535
H      4.910963   -0.502185   -0.998259
H     -2.513816   -2.630369    2.401699
H      4.375079    3.660165   -2.036957
H     -4.522014   -1.605607   -0.696726
H      2.290165    0.079888   -3.002271
H     -2.175070    0.354172    2.917080
