27

C      3.875691   -0.225945    0.140222
C      3.026927   -0.177847    1.215304
C      3.363283   -0.407958   -1.124180
C      1.677819   -0.313427    1.001823
C      2.014958   -0.543561   -1.338445
C     -1.868899    1.179464   -1.206487
C     -3.097226    0.978176    0.552454
C     -1.885301   -0.967911    1.154774
C      1.145984   -0.498734   -0.277798
C     -0.942010    0.697840   -0.135216
C     -0.328243   -0.635747   -0.410104
N     -1.806286    0.465545    0.995948
O     -2.803550    1.919624   -0.443657
O     -0.748495   -1.507192    0.583798
H      4.938813   -0.119613    0.303931
H      3.433564   -0.035404    2.200529
H      4.038358   -0.444860   -1.967037
H      0.975397   -0.278949    1.843208
H      1.600803   -0.687470   -2.331370
H     -1.370966    1.865880   -1.937484
H     -2.445297    0.386433   -1.695601
H     -3.691616    1.389494    1.365800
H     -3.601550    0.127484    0.018739
H     -1.961446   -1.283062    2.206108
H     -2.753353   -1.329235    0.602755
H     -0.190561    1.498076    0.075228
H     -0.596797   -1.051102   -1.393243
