31

C     -5.083706   -0.254183   -0.251406
C     -4.183066   -0.789269   -1.142686
C     -4.622103    0.642710    0.688363
C     -2.850583   -0.437096   -1.097273
C     -3.284131    0.988907    0.725336
C     -0.931313    0.827634   -0.128773
C      3.892562    0.084514    0.118601
C      1.671983   -0.002485    1.104290
C     -2.365803    0.460365   -0.163208
C      2.321380   -1.606345   -0.686372
C      2.425839   -0.231395   -0.177228
N      2.019849    0.737937   -1.198350
O      4.030169    1.384623    0.584867
O      1.935712   -1.905368   -1.843628
O      2.669567   -2.646421    0.160822
S     -0.089228   -0.324029    0.962417
H     -6.133371   -0.547410   -0.306523
H     -4.530317   -1.488399   -1.878929
H     -5.315198    1.065511    1.387732
H     -2.157905   -0.871748   -1.810673
H     -2.989928    1.701878    1.492526
H     -0.485308    0.848445   -1.155059
H     -0.815093    1.867713    0.262450
H      4.180338   -0.597514    0.946192
H      4.532938   -0.111458   -0.758535
H      2.082568   -0.718706    1.851001
H      1.905566    1.007785    1.460397
H      2.845104    0.921545   -1.811845
H      1.751552    1.608308   -0.688260
H      4.631133    1.942249    0.061496
H      2.940794   -3.558298   -0.182280
