31

C      3.732374   -0.007947    0.569635
C      3.070078    0.350220   -0.747562
C      1.638580    0.668408   -0.498023
C      0.918881   -0.539567    0.105648
C     -2.025049    1.460734    0.544704
C     -1.472511    0.310089   -0.336181
C      0.992494   -1.645392   -0.864504
C     -3.768844    0.372698   -0.391552
C     -0.949371   -0.078654    1.842516
N     -3.408617    1.523975    0.110252
N     -1.869170    0.841332    1.843570
N     -2.644858   -0.533558   -0.322523
N     -0.398792   -0.149593    0.499370
O      2.024317   -2.266358   -1.040469
O     -5.030931    0.112337   -0.894240
O     -0.519074   -0.881900    2.886391
S     -0.412984   -2.143242   -1.840859
H      4.766901    0.450726    0.614448
H      3.107336    0.398400    1.393653
H      3.811098   -1.104321    0.623479
H      3.589970    1.269168   -1.182810
H      3.271125   -0.465547   -1.459244
H      1.119851    0.913513   -1.472079
H      1.488966    1.501636    0.211405
H      1.490463   -0.774018    1.045965
H     -1.460878    2.374768    0.446505
H     -1.228647    0.620426   -1.335165
H     -2.789246   -1.550392   -0.270364
H     -5.829518    0.727194   -0.754554
H     -0.957887   -0.799391    3.809351
H     -0.256057   -1.581877   -3.136761
