32

C     -2.018999    0.369934   -1.446928
C     -2.793421    1.239808    0.773151
C     -0.500130    1.578809    0.086793
C      2.211534   -1.909898   -0.550034
C      0.624842    0.884068    0.076407
C      1.291873   -1.457866    0.578852
C      0.269174   -0.549069   -0.038373
C      2.075910    1.280112    0.155873
C     -1.061015   -0.577805    0.674340
C      2.870547    0.001014    0.409957
C     -1.684605    0.645880   -0.019681
N     -1.802390   -1.765225    0.444524
O      2.491790    1.920454   -1.005824
O     -3.028633   -1.913584    1.036340
O     -1.390538   -2.689868   -0.275880
O      3.001801   -0.775938   -0.714347
O      2.187561   -0.738020    1.369908
H     -2.004288   -0.730936   -1.612029
H     -3.035518    0.713884   -1.744652
H     -1.256611    0.787052   -2.162223
H     -2.715154    1.065855    1.848510
H     -3.761030    0.864241    0.347624
H     -2.818840    2.352642    0.582562
H     -0.583648    2.667570    0.160736
H      2.781346   -2.803482   -0.295137
H      1.599759   -2.056855   -1.471979
H      0.806686   -2.289461    1.097799
H      0.067140   -0.828870   -1.094476
H      2.273949    1.949707    1.006154
H     -0.947973   -0.308113    1.739523
H      3.830058    0.317712    0.841972
H      3.018823    2.756248   -0.799461
