32

C      2.872125    0.553121   -0.927813
C      2.449986   -1.112451    0.819727
C      0.919297   -0.924273   -1.027599
C     -2.914990    0.766057    0.717776
C     -0.348478   -0.734445   -0.714682
C     -1.587200    1.158600    0.110687
C     -0.488568    0.187544    0.443721
C     -1.589581   -1.271766   -1.312672
C      0.874472    0.839561    0.554669
C     -2.607020   -0.121622   -1.316428
C      1.800751   -0.142775   -0.105822
N      1.232057    1.202898    1.879025
O     -2.044828   -2.299591   -0.470325
O      0.462919    2.083214    2.584499
O      2.243104    0.729287    2.411939
O     -3.343167   -0.224187   -0.151512
O     -1.918384    1.100001   -1.264212
H      3.330822   -0.208921   -1.568672
H      2.431045    1.333212   -1.554748
H      3.598861    1.025431   -0.227470
H      2.637568   -2.054668    0.222933
H      3.472298   -0.805863    1.155088
H      1.797532   -1.431188    1.648584
H      1.301779   -1.547633   -1.828073
H     -2.860315    0.469706    1.759842
H     -3.588658    1.648556    0.587840
H     -1.343709    2.167740    0.439333
H     -0.673411   -0.373895    1.379008
H     -1.443253   -1.670230   -2.342291
H      0.837291    1.760164   -0.065955
H     -3.217101   -0.208198   -2.228521
H     -2.293245   -1.893385    0.392123
