46

C      2.083684    2.459858    1.304622
C     -2.731763    0.966637   -2.062884
C      4.318360    2.220680   -1.664057
C     -4.540353    1.697788    1.125755
C      4.049084    0.964188   -2.087040
C     -3.976809    0.821625    2.011690
C      3.663946    2.686352   -0.552014
C     -4.152728    1.755817   -0.196150
C      3.121650    0.167357   -1.396808
C     -2.977278   -0.029229    1.526734
C      2.752480    1.901049    0.124294
C     -3.165794    0.907422   -0.648131
C      2.446115    0.596265   -0.281516
C     -2.549549   -0.014232    0.214286
C      1.515969   -0.207825    0.460870
C     -1.549456   -0.911287   -0.311168
C      1.603307   -2.546283    0.745825
C     -0.845914   -3.054754    0.420346
C      0.877868   -1.448301   -0.001792
C     -0.556390   -1.570963    0.511311
O      1.204283    0.174818    1.627432
O     -1.568239   -1.110726   -1.581947
O      1.621884   -2.458135    1.985467
O      2.217954   -3.596958    0.115676
O     -0.928864   -3.614786   -0.696565
O     -1.025428   -3.827556    1.554137
O      1.017956   -1.741844   -1.327899
O     -0.524431   -1.244028    1.844724
H      0.977321    2.423507    1.148605
H      2.432145    2.033134    2.245477
H      2.294872    3.566569    1.384797
H     -3.115518    0.148377   -2.688232
H     -1.645394    1.104945   -2.115857
H     -3.146024    1.925891   -2.519333
H      5.025490    2.873141   -2.162945
H     -5.331394    2.393438    1.443767
H      4.563636    0.591147   -2.965670
H     -4.288409    0.788686    3.034920
H      3.883205    3.693775   -0.216633
H     -4.641927    2.479747   -0.859602
H      2.998436   -0.818323   -1.810747
H     -2.567348   -0.720206    2.243466
H      2.332335   -4.472907    0.607457
H     -1.236142   -4.808664    1.550989
H      0.676009   -1.089061   -1.971008
H     -0.612838   -2.056144    2.435830
