49

C      7.050775   -0.881062    0.181025
C      6.536607    0.236028   -0.452910
C      6.179451   -1.917503    0.456660
C     -5.769896    1.081251   -0.110689
C     -5.831517   -0.333967    0.397019
C      5.202178    0.324699   -0.802796
C      4.862820   -1.842812    0.117196
C     -4.357552    1.624721   -0.173485
C     -4.461096   -0.882023    0.708024
C      0.661855   -0.200049   -0.160263
C     -0.337068    0.261144    0.851764
C      2.931961   -0.688825   -0.844916
C     -2.016581    1.133719   -0.664940
C     -2.148315   -1.077361   -0.025378
C      4.375672   -0.714677   -0.515060
C      2.079175   -0.169531    0.324350
C     -3.461876    0.710675   -0.965582
C     -3.561588   -0.725860   -0.500012
C      2.503630    1.231596    0.524140
N     -1.671569    0.215974    0.367193
O      1.769392    2.160758    0.130116
O      3.701499    1.574642    1.137987
H      8.095043   -0.974990    0.466379
H      7.210182    1.069613   -0.679718
H      6.524182   -2.807865    0.947411
H     -6.351326    1.754723    0.574670
H     -6.204713    1.136579   -1.128354
H     -6.435631   -0.402760    1.306927
H     -6.286842   -0.996412   -0.372715
H      4.823381    1.222532   -1.310252
H      4.180320   -2.669728    0.340973
H     -3.925191    1.798893    0.824929
H     -4.425326    2.594000   -0.731651
H     -3.991423   -0.416523    1.584104
H     -4.546580   -1.965811    0.901091
H      0.394112   -1.226629   -0.488827
H      0.536480    0.440225   -1.066090
H     -0.306771   -0.332708    1.791693
H     -0.117809    1.311755    1.120457
H      2.576781   -1.707439   -1.053443
H      2.698854   -0.060891   -1.709746
H     -1.985652    2.163004   -0.248395
H     -1.434269    1.065454   -1.583339
H     -1.626973   -1.523616   -0.870102
H     -2.202631   -1.759617    0.842261
H      2.252352   -0.754127    1.230488
H     -3.622579    0.793129   -2.041612
H     -3.883957   -1.375985   -1.324216
H      3.818029    2.503659    1.526055
