56

C      5.941216    0.149619   -0.892017
C      7.210846   -1.711232    0.395719
C      3.445035   -1.160021    1.533750
C     -7.605558   -0.515430    1.068277
C     -7.250370    0.776969    0.719932
C     -7.095938   -1.566343    0.333256
C      5.260726    1.333077    1.605690
C      6.057204    0.113787    1.519183
C      3.952995    1.212519    2.316133
C     -6.389974    0.996878   -0.359564
C     -6.235791   -1.334966   -0.744966
C      1.894110    0.675674    1.093267
C     -4.330375   -0.973081   -2.821394
C     -1.978473    1.798337   -0.670170
C      6.397326   -0.472022    0.368797
C      3.062595    0.247800    1.620084
C     -5.885570   -0.053314   -1.087913
C      0.964627   -0.193559    0.423396
C     -0.746594    1.497143   -0.094341
C     -3.169175   -1.436488   -2.002616
C     -4.984906    0.232246   -2.210072
C     -2.767996    0.853361   -1.289681
C     -0.304172    0.196960   -0.149907
C     -2.342706   -0.431968   -1.350835
C     -1.106968   -0.767980   -0.780676
O      1.280917   -1.405632    0.322841
O     -0.025402    2.536812    0.510584
O     -2.883455   -2.639549   -1.857494
O     -0.780753   -2.087745   -0.901021
O     -3.996141    1.185666   -1.856722
H      6.269646    1.201268   -0.995274
H      4.825832    0.109421   -1.002940
H      6.393942   -0.411026   -1.761202
H      7.193147   -2.175331   -0.632413
H      8.287239   -1.445579    0.557571
H      6.841631   -2.463157    1.100212
H      3.563730   -1.556587    0.520755
H      4.338996   -1.395384    2.163889
H      2.608296   -1.753661    2.018793
H     -8.275838   -0.719748    1.906387
H     -7.650901    1.598276    1.297220
H     -7.348523   -2.603039    0.571423
H      5.033132    1.689951    0.550104
H      5.858334    2.161899    2.093061
H      6.412113   -0.349197    2.457620
H      4.130677    0.879057    3.382946
H      3.442513    2.191626    2.431092
H     -6.128503    2.031021   -0.608802
H     -5.830115   -2.146430   -1.326017
H      1.746919    1.735851    1.233695
H     -5.011368   -1.756589   -3.126193
H     -3.854968   -0.604498   -3.780876
H     -2.327091    2.818830   -0.627446
H     -5.593611    0.720505   -3.018843
H     -0.419328    3.460922    0.508780
H     -0.093180   -2.691913   -0.675061
