54

C     -2.603312   -3.923725   -1.787661
C      2.253673   -2.360449   -2.432692
C      3.590617    2.006996    3.204068
C     -2.020081    2.437347    1.539646
C     -0.169403    2.147742    0.115409
C     -1.862363    3.794718    1.567446
C      0.009131    3.521145    0.129476
C     -2.212191    0.351928   -1.513402
C     -2.654639   -0.281200   -2.685637
C      1.471896   -1.062077   -0.085862
C      1.898236    0.349861    1.739816
C     -0.690680   -2.154998    1.510774
C     -2.458863   -2.454299   -1.663924
C     -1.196658    1.562045    0.825587
C      1.001230   -0.467157    1.053528
C     -0.826677    4.355745    0.848663
C     -1.905548   -0.442999   -0.447773
C     -0.375812   -0.686192    1.518285
C     -2.774678   -1.672263   -2.753501
C      2.754148   -0.879360   -0.548342
C      3.188067    0.568728    1.326086
C     -1.437892    0.126868    0.835762
C      3.602483   -0.068513    0.156518
C     -2.029462   -1.809670   -0.532810
O     -0.642842    5.742742    0.860230
O     -3.222566   -2.196835   -3.963640
O      4.903486    0.143620   -0.273461
O      3.132700   -1.526538   -1.712054
O      4.072253    1.390784    2.027061
O     -1.696447   -2.530628    0.591266
H     -3.672455   -4.238619   -1.653442
H     -2.181386   -4.315919   -2.726767
H     -2.066103   -4.389168   -0.911010
H      1.945890   -3.252275   -1.854636
H      1.290275   -1.828050   -2.680161
H      2.670549   -2.689129   -3.385385
H      4.389981    2.540473    3.755002
H      2.804081    2.742253    2.885303
H      3.107719    1.286999    3.897084
H     -2.835950    2.013704    2.107910
H      0.529272    1.585349   -0.480667
H     -2.508356    4.464461    2.125811
H      0.813256    4.008527   -0.422976
H     -2.118269    1.434393   -1.458996
H     -2.899505    0.338638   -3.533482
H      0.822492   -1.702111   -0.649287
H      1.562935    0.836927    2.644279
H      0.220513   -2.731495    1.250981
H     -1.019280   -2.533369    2.505335
H     -0.438806   -0.355731    2.606529
H     -2.355662   -0.042210    1.521138
H     -1.082554    6.352227    0.185973
H     -3.325775   -3.210505   -4.059511
H      5.249327   -0.298737   -1.117885
