56

C     -0.628846    3.118598    0.770662
C     -2.814242    3.040498    1.802969
C      7.707176   -1.639841   -1.705546
C      6.778481   -0.842788   -2.330266
C      7.424674   -2.166588   -0.448740
C      5.565715   -0.563471   -1.713626
C      6.236689   -1.893861    0.156529
C     -3.923924    0.030811   -1.425455
C      1.628577    0.694702   -2.023450
C      0.349936   -0.101058    2.190041
C     -1.560791    2.285807    1.666356
C      5.288844   -1.083284   -0.475956
C     -3.443721    0.736942   -0.153605
C      1.803823   -0.134921    0.549329
C     -3.695794   -0.227066    0.998862
C     -2.416919   -0.099388    1.770291
C      2.899281   -0.271390   -0.314379
C      0.658267    0.421804    0.063097
C     -1.599481    0.921009    1.112100
N      2.755042    0.149251   -1.552025
N      0.560445    0.833178   -1.199447
N      1.607474   -0.447039    1.833815
N      4.068109   -0.861186    0.219131
N     -0.209812    0.428659    1.087578
O     -4.831118    0.077194    1.718157
O     -2.604380    0.051049    3.131543
O     -5.275538   -1.914694   -3.294247
O     -3.437576   -3.747695   -2.455945
O     -2.780892   -1.807292   -4.019690
O     -3.263591   -1.175163   -1.489953
O     -2.085405    0.944751   -0.193084
P     -3.663682   -2.093776   -2.824940
H     -0.976919    3.122112   -0.275485
H      0.411593    2.770338    0.840132
H     -0.630414    4.186354    1.098315
H     -2.621684    3.883089    2.537021
H     -3.685985    2.525586    2.172593
H     -2.999037    3.595289    0.836989
H      8.658531   -1.876885   -2.155471
H      6.970829   -0.412047   -3.321625
H      8.139765   -2.797105    0.064213
H      4.863957    0.067299   -2.221804
H      6.027014   -2.308522    1.131888
H     -5.021371   -0.086247   -1.379806
H     -3.693216    0.605610   -2.328530
H      1.614847    1.007667   -3.057132
H     -0.060544   -0.248558    3.180418
H     -1.054054    2.268552    2.667636
H     -4.055752    1.645212   -0.068973
H     -3.853298   -1.269394    0.607627
H     -1.894172   -1.099001    1.664852
H      4.048575   -1.169063    1.238315
H     -4.673793    0.107177    2.705562
H     -2.620909   -0.780879    3.635413
H     -5.887149   -2.355562   -2.640020
H     -4.103634   -4.044772   -1.782590
