52

C     -0.884429   -1.639954    2.411910
C     -2.082369   -2.303637    0.374485
C      3.086681    1.021724    0.755012
C      1.265283    1.761029   -0.568242
C      3.754194    2.211962    0.607628
C      1.930217    2.966908   -0.723917
C      1.198302   -2.520743   -2.740321
C     -3.842137    0.804568   -1.843798
C     -0.901440    1.073604    1.480110
C     -0.746491   -1.956532    0.966916
C      1.840490    0.769089    0.178570
C      3.156595    3.202808   -0.149717
C      0.877729   -2.135252   -1.313687
C     -2.673443    1.691546    0.416175
C      2.025848   -1.465464   -0.634422
C     -3.827021    2.275227   -0.052420
C     -2.099421    0.629677   -0.280000
C      1.291983   -0.566055    0.413815
C     -0.118761   -0.850396    0.114916
I     -6.193894    4.203601   -0.062024
N     -4.389710    1.813978   -1.183429
N     -2.722770    0.234928   -1.389762
N     -1.916604    1.952989    1.503122
N     -4.437853    3.351088    0.639721
N     -1.019196    0.279450    0.407563
O      2.281296   -3.421292   -2.671314
O      3.752543    4.429127   -0.351387
O      2.813919   -2.374127    0.028981
O      1.632205   -1.055063    1.672528
O     -0.177890   -1.240631   -1.201541
H     -1.749933   -0.942891    2.610600
H     -0.006052   -1.382302    2.989998
H     -1.258408   -2.605151    2.894155
H     -2.841374   -1.576788    0.686577
H     -2.004957   -2.325857   -0.726713
H     -2.458644   -3.290827    0.763271
H      3.613614    0.275702    1.357090
H      0.306002    1.616356   -1.060971
H      4.743154    2.396600    1.073598
H      1.433020    3.746660   -1.342283
H      1.380173   -1.690308   -3.406873
H      0.325676   -3.125303   -3.134204
H     -4.299803    0.427099   -2.765768
H     -0.119113    1.041448    2.225416
H     -0.055073   -2.870936    0.939816
H      0.606426   -3.103694   -0.821873
H      2.633012   -0.836642   -1.310503
H     -4.006682    3.718354    1.504565
H      2.196524   -3.928215   -1.817042
H      4.360609    4.506688   -1.172176
H      2.306470   -2.803825    0.738001
H      2.021503   -0.390324    2.286308
