35

C     -5.066180   -0.125366   -0.008165
C      5.683730   -0.613672    0.744051
C      4.989571    0.147297    1.674229
C      5.014452   -1.099779   -0.355238
C      3.650833    0.387127    1.459011
C      3.684510   -0.863603   -0.572448
C     -0.747790    0.487973   -2.338613
C     -2.115007    0.650036   -2.612148
C     -1.364289   -0.470726   -0.276948
C     -3.751303   -0.737682    0.409912
C      2.991623   -0.106070    0.352691
C     -0.382497   -0.084857   -1.144135
C     -2.720705   -0.300116   -0.569136
C      1.574212    0.192523    0.197941
N     -3.353152   -0.298244    1.733899
N     -3.060285    0.260350   -1.738733
N      0.974944   -0.267404   -0.826705
O      0.906181    0.942251    1.121578
Cl     0.691742    0.000000    0.000000
H     -4.865072    0.797598   -0.574265
H     -5.621110    0.112104    0.921049
H     -5.583919   -0.863058   -0.641964
H      6.744652   -0.833878    0.865281
H      5.525443    0.528683    2.541576
H      5.539041   -1.701205   -1.101326
H      3.085176    0.985658    2.181694
H      3.124967   -1.227882   -1.422569
H     -0.063017    0.822650   -3.082262
H     -2.407879    1.098139   -3.546205
H     -1.146258   -0.927740    0.679750
H     -3.795277   -1.848186    0.425557
H     -3.716607    0.672820    1.939889
H     -3.653082   -0.963842    2.483122
H     -0.075905    1.186018    1.079632
H     -0.691742    0.000000    0.000000
