56

C     -2.276306   -0.118850    3.242463
C     -1.211673   -2.010736    2.133961
C      8.347467   -0.103979   -1.628094
C      7.670582    0.307887   -0.509501
C      7.596269   -0.695686   -2.615581
C      6.285705    0.127963   -0.394142
C      6.239460   -0.877836   -2.515520
C     -4.558201    0.464281   -0.651110
C      2.778511    1.205479    1.433120
C     -0.179072   -1.132680   -0.966532
C     -1.209749   -0.490078    2.273480
C      5.524373   -0.462358   -1.376055
C     -3.568672    0.527502    0.494093
C      1.875437   -0.434560   -0.514425
C     -2.874494    1.859017    0.483309
C     -1.459722    1.572000    0.859204
C      3.233003   -0.134614   -0.427393
C      0.985491    0.095976    0.382408
C     -1.413056    0.069069    0.888417
N      3.603908    0.674797    0.550663
N      1.468215    0.917674    1.351344
N      1.130454   -1.197213   -1.346748
N      4.139365   -0.665200   -1.346146
N     -0.269846   -0.341094    0.092379
O     -3.485419    2.780180    1.332674
O     -1.042181    2.162595    2.028415
O     -5.630932   -1.874777   -3.202492
O     -6.651449    0.620055   -2.569342
O     -7.554308   -1.552073   -1.491190
O     -5.149904   -0.809304   -0.720498
O     -2.572700   -0.400134    0.330627
P     -6.249037   -0.919835   -1.972491
H     -3.142585   -0.833177    3.229636
H     -1.840586   -0.245093    4.277253
H     -2.634508    0.906737    3.189984
H     -1.328973   -2.490548    3.133158
H     -2.124355   -2.255610    1.544738
H     -0.320755   -2.375167    1.602536
H      9.411306    0.015123   -1.757586
H      8.231021    0.779095    0.290485
H      8.097629   -1.040807   -3.528781
H      5.797743    0.464830    0.518520
H      5.665519   -1.350318   -3.315445
H     -5.334037    1.249949   -0.553174
H     -4.053658    0.608881   -1.633874
H      3.183130    1.863438    2.204881
H     -1.029271   -1.630276   -1.427417
H     -0.188031   -0.224187    2.637223
H     -4.167877    0.369891    1.423983
H     -2.958630    2.276110   -0.549318
H     -0.801890    1.988139    0.040141
H      3.726587   -1.296530   -2.103455
H     -4.378142    2.427046    1.555232
H     -1.048228    3.134944    1.896395
H     -6.302868   -2.437593   -3.650228
H     -5.980061    0.931657   -3.235769
