52

C      2.445441   -2.015142   -0.199344
C      1.663219   -1.776731   -2.485839
C     -1.687635    1.030611    0.378929
C     -1.387596    0.166953    2.523425
C     -2.539485    2.018908    0.859912
C     -2.242551    1.149799    3.043231
C     -2.968566   -2.129435   -0.897468
C      2.547437    2.343694    1.499848
C      0.732778    1.016267   -2.357782
C      1.210713   -1.951912   -1.033377
C     -1.101708    0.099277    1.181099
C     -2.809352    2.064251    2.210642
C     -1.434254   -2.250416   -0.804851
C      1.815398    2.404536   -1.120146
C     -1.041773   -2.225301    0.630381
C      2.521969    3.449814   -0.562890
C      1.467633    1.308333   -0.357655
C     -0.212474   -0.923105    0.678352
C      0.259875   -0.828747   -0.717675
I      3.916939    6.138889   -0.617263
N      2.884939    3.414946    0.746324
N      1.861938    1.340163    0.939264
N      1.351571    2.205165   -2.357088
N      2.844776    4.545957   -1.404706
N      0.794628    0.446065   -1.126492
O     -3.535300   -3.243409   -0.287403
O     -3.664138    3.040069    2.752550
O     -0.322408   -3.311488    1.047606
O      0.895595   -1.159981    1.494498
O     -0.922381   -1.125826   -1.439744
H      2.335169   -2.719910    0.671397
H      3.218453   -2.555083   -0.835812
H      2.904865   -1.066143    0.040408
H      2.244553   -0.847717   -2.604294
H      0.819888   -1.730984   -3.196566
H      2.364829   -2.604745   -2.757186
H     -1.521501    1.028842   -0.662429
H     -0.980157   -0.519324    3.255970
H     -3.005028    2.753560    0.228494
H     -2.435840    1.174872    4.107088
H     -3.285163   -1.999950   -1.938130
H     -3.299493   -1.236469   -0.327167
H      2.853688    2.356938    2.543105
H      0.266165    0.597152   -3.236430
H      0.742045   -2.947210   -0.999879
H     -1.193947   -3.210581   -1.317734
H     -1.925885   -2.141861    1.296984
H      2.566286    4.579519   -2.406786
H     -2.938296   -4.030126   -0.482408
H     -4.109447    3.735946    2.161687
H      0.199969   -3.056420    1.849320
H      0.833618   -0.802511    2.394031
