47

C      2.756494   -2.452012   -0.821708
C      3.515402    1.483126    0.494767
C      5.427244    0.363592    1.503030
C      4.964730    0.106439   -0.882148
C     -1.210351   -0.674203    0.841209
C      2.457974   -1.131462   -0.152452
C     -0.089988   -0.572777   -0.013453
C     -2.407517   -0.111140    0.522572
C     -1.440076    0.676154   -1.513220
C      1.143653   -1.148058    0.452442
C     -0.175083    0.101606   -1.212320
C     -5.729642   -0.269008    0.487833
C     -5.776828    1.226877    0.255688
C     -2.501025    0.564219   -0.668597
C     -4.727161   -0.581904    1.521438
C     -4.854209    1.631529   -0.829005
C      4.343891    0.193185    0.467075
Cl    -1.577064    1.541660   -3.024171
N      3.515529   -0.929589    0.858997
O      1.110123   -1.775109    1.589432
O      0.810199    0.253060   -2.087584
O     -6.963333   -0.824744    0.746703
O     -7.056914    1.587367   -0.101799
O     -5.184368   -1.117622    2.528075
O     -5.320937    2.552309   -1.545553
O     -3.333938   -0.377394    1.556391
O     -3.574030    1.244805   -1.269305
H      3.654173   -2.483660   -1.424694
H      1.888782   -2.806495   -1.448937
H      2.866545   -3.223961    0.007393
H      3.137190    1.599589    1.558640
H      2.687945    1.393698   -0.192578
H      4.192682    2.308173    0.244958
H      5.724982    1.447820    1.590441
H      6.272588   -0.279674    1.185418
H      5.077772    0.019290    2.488946
H      4.292815    0.499252   -1.705499
H      5.822806    0.835378   -0.883432
H      5.407634   -0.867406   -1.150283
H     -1.157858   -1.214025    1.790085
H      2.626338   -0.376782   -0.960657
H     -5.370864   -0.677030   -0.507556
H     -5.497294    1.726856    1.185565
H      3.022761   -0.659862    1.734670
H      1.465722    0.357273   -2.676452
H     -7.018128   -1.687111    0.267841
H     -7.219367    2.527770    0.181178
