52

C     -3.019474    0.649872   -2.525680
C     -3.361133   -1.816884   -2.188218
C      5.861860    0.503597   -1.490823
C      5.236728    0.554492    0.787174
C      7.164729    0.752526   -1.164032
C      6.574331    0.808133    1.091791
C     -3.881396    1.571672    2.252673
C      1.241973    0.740742    1.877913
C     -0.533042   -0.699177   -1.980773
C     -3.308679   -0.472948   -1.542111
C      4.840516    0.394371   -0.521785
C      7.560867    0.912925    0.142777
C     -3.672741    0.497739    1.240590
C      1.142662   -0.091261   -0.689759
C     -3.102712   -0.762755    1.860598
C      2.389984    0.236866   -0.118555
C      0.004924    0.013175    0.052826
C     -2.710415   -1.510468    0.582975
C     -2.385771   -0.392424   -0.343716
I     -1.126010   -2.858242    0.903305
N      2.368061    0.642110    1.157770
N      0.049633    0.425958    1.328384
N      0.796230   -0.527323   -1.928342
N      3.520298    0.119650   -0.939805
N     -1.009849   -0.369219   -0.773563
O     -4.886521    1.116076    3.137224
O      8.892348    1.167624    0.477657
O     -4.135156   -1.418204    2.523191
O     -3.843465   -2.241100    0.223841
O     -2.707867    0.808323    0.301404
H     -3.821619    1.415457   -2.556058
H     -2.105773    1.185249   -2.188389
H     -2.934338    0.262128   -3.564341
H     -3.280536   -1.761947   -3.314523
H     -2.603872   -2.477573   -1.742890
H     -4.354612   -2.338147   -2.046824
H      5.549497    0.376693   -2.542095
H      4.518916    0.477243    1.605208
H      7.902145    0.824289   -1.964421
H      6.828568    0.925759    2.139831
H     -2.993937    1.810753    2.850590
H     -4.270473    2.468066    1.755474
H      1.232829    1.069992    2.911717
H     -1.045933   -1.040907   -2.864195
H     -4.354221   -0.266198   -1.163345
H     -4.655117    0.242377    0.788833
H     -2.263653   -0.590220    2.529128
H      3.401341   -0.198614   -1.946719
H     -5.665721    0.909595    2.557036
H      9.178789    2.137001    0.526273
H     -3.939118   -1.529481    3.494819
H     -4.284075   -2.657358    0.999960
