52

C     -3.351862   -2.304539    0.696353
C     -3.307562   -1.681739   -1.674962
C     -4.860076    0.206134    1.126499
C     -6.031767    0.946857    1.316478
C     -5.459560   -0.162378   -1.141624
C      6.563511   -1.039241   -0.508274
C      0.664522   -2.379685   -0.487151
C      1.496440    1.802601    0.713569
C     -4.603343   -0.333643   -0.108778
C     -6.624708    0.575008   -0.950770
C     -6.897440    1.120649    0.274592
C      5.668456   -0.061257    0.240370
C      0.146627    0.145179    0.198179
C      5.810173    1.337115   -0.319131
C      4.339467    1.766911   -0.433499
C     -0.909799   -0.698374   -0.076423
C      1.475148   -0.258197    0.135140
C      3.713961    0.778491    0.514126
C     -3.341593   -1.125831   -0.278976
I     -7.988433    0.869355   -2.518858
N     -0.627121   -1.950418   -0.415532
N      1.678808   -1.535233   -0.213616
N      0.202654    1.447340    0.565118
N     -2.245498   -0.251101   -0.005314
N      2.290532    0.764961    0.452928
O      7.880945   -0.615395   -0.303466
O     -8.064161    1.861167    0.472514
O      6.408643    2.109291    0.680489
O      4.155380    3.077975   -0.084492
O      4.309857   -0.406179    0.097815
H     -2.342270   -2.485675    1.068549
H     -4.023719   -1.993527    1.529079
H     -3.710602   -3.222484    0.188207
H     -3.197209   -0.870508   -2.420567
H     -4.254657   -2.256705   -1.830274
H     -2.441808   -2.360520   -1.799056
H     -4.206298    0.096483    1.977860
H     -6.273312    1.387427    2.269792
H     -5.309948   -0.558298   -2.127039
H      6.439121   -2.050386   -0.093571
H      6.348355   -1.018117   -1.576324
H      0.931182   -3.390818   -0.759324
H      1.773098    2.815639    1.008558
H      5.883636   -0.100196    1.326615
H      6.321214    1.379705   -1.284075
H      4.040445    1.532660   -1.473426
H      4.118336    1.002629    1.520451
H     -2.440796    0.778364    0.262151
H      7.948223    0.079757    0.413229
H     -8.284894    2.274824    1.370543
H      6.045983    1.786350    1.560491
H      4.143716    3.167569    0.904827
