49

C      2.466232    3.584453    2.327748
C      0.752121   -2.121692    0.683226
C     -0.154345    0.805833   -0.428139
C      2.844770    2.358943    2.618204
C     -4.086750    2.035647    1.923996
C     -4.546433    1.764461    0.658571
C     -3.118312    1.238186    2.454273
C      3.213569    1.119309    2.822645
C     -4.036872    0.704588   -0.061452
C     -2.612744    0.180498    1.730384
C      1.193198   -1.450612   -2.979189
C      1.349005   -2.335050   -1.752505
C      2.205646    0.314307   -1.703900
C     -1.203292   -1.081500   -1.628096
C      0.932909   -0.106036   -2.390060
C     -3.041499   -0.130463    0.459475
C      2.303963   -0.520162   -0.447600
C      3.269843    0.274058    1.662513
C      1.081973   -1.402128   -0.563329
C      0.067757   -0.499338   -1.151812
O      4.234458   -0.539834    1.456971
O     -3.658687   -1.928148   -1.339627
O     -2.198837   -2.601155    0.428165
O      2.282707    0.294854    0.704090
S     -2.450092   -1.465154   -0.489244
H      1.421009    3.743552    2.368270
H      3.259983    4.245055    2.091977
H      1.731394   -2.243049    1.238937
H      0.107261   -1.513879    1.309822
H      0.441518   -3.140049    0.456877
H      0.433651    1.645148   -0.862049
H     -0.010297    0.735835    0.651754
H     -1.217152    1.099782   -0.609827
H     -4.514925    2.873546    2.446772
H     -5.319987    2.353113    0.159637
H     -2.727627    1.413046    3.442972
H      3.427838    0.886667    3.826756
H     -4.408241    0.496818   -1.066112
H     -1.846062   -0.438139    2.172240
H      0.424989   -1.805058   -3.681881
H      2.146717   -1.457798   -3.576480
H      2.411450   -2.675291   -1.652885
H      0.671011   -3.190925   -1.766085
H      2.303462    1.397213   -1.533298
H      3.050042   -0.058613   -2.363187
H     -1.635944   -0.375167   -2.398241
H     -0.925120   -1.986046   -2.256193
H      0.454977    0.625047   -3.004433
H      3.229765   -1.124675   -0.390651
