52

C     -2.415621   -1.312134   -2.135090
C     -2.393237    1.103405   -2.275912
C      5.296507    0.803973    0.357061
C      5.861505   -1.513062    0.235960
C      6.671422    1.117966    0.313821
C      7.193396   -1.194943    0.194910
C     -4.942958   -1.150929    2.139633
C      1.454289    2.057031   -0.390173
C     -0.575331   -1.746026    0.401624
C     -2.876009   -0.020859   -1.438868
C      4.898221   -0.503705    0.317814
C      7.593809    0.122609    0.233979
C     -4.429863   -0.555392    0.821404
C      1.198336   -0.514278    0.185791
C     -4.214631    0.929764    1.026586
C      2.497795    0.020534    0.111502
C      0.072565    0.247856   -0.028790
C     -2.736375    1.032281    0.859704
C     -2.423200   -0.089889   -0.042973
I     -1.875390    0.548915    2.780579
N      2.549880    1.309605   -0.180047
N      0.210577    1.533947   -0.316510
N      0.752857   -1.742923    0.449332
N      3.552279   -0.870384    0.338753
N     -1.040378   -0.524150    0.106420
O     -6.197273   -0.627284    2.453284
O      8.950258    0.408918    0.190290
O     -4.921514    1.663852    0.076667
O     -2.263819    2.262901    0.524391
O     -3.191811   -1.114126    0.574286
H     -2.393995   -2.165113   -1.456798
H     -1.399357   -1.192230   -2.567898
H     -3.091271   -1.572467   -2.972987
H     -3.119235    1.303661   -3.120859
H     -2.230293    2.059862   -1.793480
H     -1.438612    0.843675   -2.809015
H      4.638358    1.658481    0.431194
H      5.553892   -2.567102    0.203710
H      6.986411    2.135513    0.343782
H      7.904642   -2.014092    0.131463
H     -5.077866   -2.247650    2.043950
H     -4.201104   -1.002742    2.948332
H      1.633538    3.106578   -0.622567
H     -1.198570   -2.605422    0.574829
H     -3.983925   -0.047694   -1.496378
H     -5.166035   -0.694777    0.029270
H     -4.509673    1.228836    2.055485
H      3.355792   -1.896725    0.547478
H     -6.232510   -0.498840    3.434074
H      9.444593    0.467240    1.084021
H     -5.815897    1.237182   -0.004067
H     -1.915164    2.780354    1.298661
