48

C     -0.428858   -1.649649    1.728193
C      6.820176   -0.652562   -1.819229
C     -6.436032   -0.823563   -2.568305
C      6.117796    0.431243   -2.307265
C      6.319261   -1.404670   -0.781063
C     -5.635445    0.045459   -3.280121
C     -5.987521   -1.220687   -1.325638
C      4.904255    0.721826   -1.712552
C      5.093736   -1.086838   -0.202609
C     -4.436089    0.489701   -2.753925
C     -4.785362   -0.772608   -0.803407
C      1.224982    0.918798    2.462139
C      4.388601   -0.013603   -0.679091
C     -3.983944    0.096221   -1.513880
C     -0.053362    1.379807    3.042887
C      1.273456    0.047308    1.470645
C     -1.169275    1.459166    2.067774
C     -1.018742    0.630371    0.835192
C      3.117028    0.333650   -0.094561
C     -2.713945    0.570037   -0.962456
C      0.007340   -0.466497    0.944332
O     -0.374305    0.598880    4.177508
O     -2.347345    1.064961    2.741501
O      2.480724    1.319635   -0.540106
O     -2.013996    1.358649   -1.636857
O      0.302784   -0.944074   -0.359457
O      2.526193   -0.358994    0.953083
O     -2.215555    0.219038    0.249879
H     -1.515045   -1.608321    2.020451
H     -0.186975   -2.623063    1.241350
H      0.125418   -1.651986    2.689116
H      7.783364   -0.898833   -2.276973
H     -7.374754   -1.167865   -2.986261
H      6.481874    1.046824   -3.124557
H      6.897440   -2.241088   -0.429992
H     -5.973814    0.369645   -4.263346
H     -6.629645   -1.907003   -0.774645
H      4.369492    1.584430   -2.118245
H      4.723882   -1.701140    0.617571
H     -3.797743    1.176519   -3.310034
H     -4.460556   -1.100180    0.170822
H      2.194162    1.286794    2.836496
H      0.172491    2.395517    3.491171
H     -1.341905    2.535250    1.843384
H     -0.579259    1.314031    0.063234
H      0.188616    0.867646    4.936588
H     -3.131823    1.581482    2.380436
H      1.078225   -1.549663   -0.339180
