48

C      0.161069   -2.380355   -0.319474
C     -6.837046    1.683059   -0.572533
C      5.891476    0.822019   -3.496204
C     -6.027734    2.722865   -0.172358
C     -6.382002    0.380761   -0.557760
C      5.430547   -0.374801   -2.959869
C      5.296920    1.996430   -3.085781
C     -4.736458    2.449349    0.250276
C     -5.090521    0.155480   -0.129464
C      4.406677   -0.410577   -2.039947
C      4.272766    1.936908   -2.163163
C     -0.984976   -1.184133    2.414510
C     -4.243891    1.161752    0.279897
C      3.803021    0.758442   -1.620876
C      0.347080   -1.637767    2.843369
C     -1.213108   -0.869517    1.120409
C      1.507029   -0.978921    2.165137
C      1.127433   -0.382339    0.870114
C     -2.869919    0.871026    0.728459
C      2.714370    0.766591   -0.652262
C     -0.069482   -1.001211    0.172554
O      0.443626   -3.050933    2.753412
O      2.510860   -1.945086    2.063443
O     -2.093274    1.761378    1.094909
O      2.230439    1.879103   -0.328415
O     -0.345583   -0.185931   -0.924767
O     -2.454281   -0.451537    0.731844
O      2.186849   -0.355053   -0.074956
H     -0.635313   -3.047265    0.072547
H      1.132237   -2.819297   -0.043575
H      0.100260   -2.461331   -1.438553
H     -7.849471    1.899968   -0.904504
H      6.693503    0.794491   -4.212317
H     -6.409268    3.737674   -0.192079
H     -7.051357   -0.398854   -0.879033
H      5.895230   -1.317824   -3.276419
H      5.661780    2.931522   -3.510224
H     -4.086750    3.256067    0.568552
H     -4.707186   -0.866595   -0.108111
H      4.022113   -1.326457   -1.600475
H      3.814049    2.879682   -1.849739
H     -1.768286   -1.104203    3.118765
H      0.455688   -1.442894    3.951228
H      1.904651   -0.153665    2.812435
H      0.774587    0.674022    1.082624
H     -0.462059   -3.420556    2.642450
H      3.059624   -1.843121    1.248284
H      0.474080   -0.108365   -1.473731
