50

C      6.660358    0.439589    0.874216
C      5.161029    0.275649    1.151133
C     -2.865675   -2.189204   -1.798325
C     -2.622481   -2.755467   -0.411639
C     -2.398487   -0.728353   -1.857116
C      1.150452    1.648513   -0.722343
C      2.305697    0.914427   -0.439233
C     -1.391665   -2.168360    0.235705
C     -1.848479   -0.313224    1.867162
C     -2.858783    0.772102    2.022530
C      4.682462   -0.853435    0.303234
C     -1.269919    1.960706   -0.755404
C      0.950971   -0.813042    0.411958
C     -3.349709    3.032261    1.184821
C     -0.095049    1.145854   -0.436258
C      2.248817   -0.336056    0.135779
C     -2.572415   -0.168633   -0.488843
C     -0.179883   -0.088471    0.131589
C     -2.578575    1.330169   -0.427050
C     -1.525351   -0.676595    0.460715
N     -2.925368    1.693621    0.934804
O     -3.669000    3.430972    2.336524
O      3.334840   -1.106524    0.443249
H      7.131904    0.909399    1.745744
H      7.068902   -0.561521    0.701972
H      6.772793    1.081059   -0.022483
H      5.136685   -0.029530    2.245267
H      4.606162    1.199420    1.086324
H     -3.968510   -2.156807   -1.929373
H     -2.427786   -2.796141   -2.589924
H     -3.496328   -2.631775    0.246562
H     -2.440548   -3.840459   -0.528361
H     -3.023481   -0.219086   -2.589518
H     -1.329957   -0.762885   -2.178360
H      1.284636    2.626925   -1.175439
H      3.251896    1.365063   -0.711818
H     -1.219004   -2.676208    1.181227
H     -0.537427   -2.401079   -0.442055
H     -0.904041   -0.090547    2.435723
H     -2.259073   -1.240549    2.362454
H     -2.562075    1.367136    2.935519
H     -3.862572    0.345720    2.299091
H      5.318399   -1.763098    0.424696
H      4.840507   -0.554402   -0.779510
H     -1.138869    2.945290   -0.218771
H     -1.183628    2.242945   -1.845253
H      0.909440   -1.806262    0.867667
H     -3.416561    3.767095    0.394587
H     -3.558174   -0.517772   -0.100619
H     -3.337076    1.751571   -1.149639
