50

C      6.074586    0.431616   -0.602658
C      5.366388    1.263146    0.427830
C     -1.322583    1.855955    1.832915
C     -0.972863    0.736916    2.714838
C     -2.051218    1.576773    0.579225
C      0.221469    0.578329   -2.580105
C      1.553512    0.890014   -2.293861
C     -0.667566   -0.569021    2.085403
C     -1.298887   -2.147851    0.362478
C     -2.425678   -2.567680   -0.470585
C      3.907277    0.804803    0.542635
C     -2.018677   -0.230479   -2.011408
C      1.157901    0.155408   -0.026208
C     -4.826119   -1.863872   -0.760673
C     -0.620572    0.067499   -1.611188
C      1.999361    0.668188   -1.002850
C     -2.365653    0.131860    0.455204
C     -0.146468   -0.143116   -0.331274
C     -2.991082   -0.227398   -0.874323
C     -1.110809   -0.693432    0.649899
N     -3.453996   -1.589437   -0.699239
O     -5.317036   -3.019068   -0.619613
O      3.323115    0.979182   -0.722844
H      6.925970   -0.121850   -0.176921
H      6.482749    1.111882   -1.379019
H      5.385418   -0.305071   -1.081091
H      5.413397    2.337100    0.186407
H      5.850051    1.090446    1.416992
H     -0.400979    2.455976    1.561457
H     -1.924045    2.611407    2.423876
H     -1.760780    0.654972    3.515586
H     -0.051714    1.037886    3.301484
H     -3.040043    2.125695    0.536290
H     -1.513889    1.966510   -0.326000
H     -0.086972    0.766256   -3.599507
H      2.203596    1.284722   -3.043155
H     -1.251994   -1.344377    2.681424
H      0.373025   -0.937025    2.228822
H     -0.327610   -2.524146   -0.078645
H     -1.364043   -2.722116    1.334265
H     -2.941829   -3.483256   -0.077019
H     -2.050250   -2.889921   -1.486287
H      3.864793   -0.254168    0.797296
H      3.382535    1.397810    1.316791
H     -2.345910    0.553628   -2.753173
H     -1.997148   -1.176901   -2.589645
H      1.588620    0.015227    0.952698
H     -5.534772   -1.066184   -0.937305
H     -3.076828   -0.161540    1.248083
H     -3.815747    0.488705   -1.044638
