47

C      5.711772   -0.123859    0.690476
C     -0.606701    1.407550   -3.014521
C      0.329765    2.246861   -2.175686
C     -0.646885    0.026570   -2.391784
C      1.976517   -1.952928    0.328578
C      3.199125   -1.343416    0.446452
C     -0.093785    2.326670   -0.743577
C     -1.004164    1.180904    1.205288
C     -2.404142    0.594779    1.268023
C     -0.434157   -1.929621    0.030685
C      2.165704    0.774202    0.205725
C      0.834416   -1.164325    0.145692
C      3.308751    0.023233    0.386713
C     -1.229243    0.198771   -1.016669
C      0.914896    0.207849    0.082061
C     -1.610149   -1.101534   -0.359258
C     -3.247116   -1.732922    1.393588
C     -0.321013    0.977165   -0.111450
C     -4.113115   -1.494798    2.548777
Cl    -5.262354   -0.193656    2.103591
Cl    -3.234965   -1.112809    4.035602
Cl    -5.095872   -2.937015    2.874206
N     -2.433819   -0.761714    0.777712
O     -3.239788   -2.922100    0.918543
O      4.550828    0.644413    0.506362
H      5.762177   -0.497144    1.739399
H      6.581332    0.559412    0.468819
H      5.807076   -0.945220   -0.056739
H     -0.261645    1.402597   -4.046129
H     -1.626680    1.870546   -2.901852
H      1.351116    1.864405   -2.309865
H      0.304902    3.276316   -2.590946
H     -1.368687   -0.567518   -2.992186
H      0.367084   -0.406309   -2.382034
H      1.923802   -3.032471    0.379938
H      4.124623   -1.917225    0.591157
H     -1.100145    2.840385   -0.735394
H      0.581045    2.980735   -0.195460
H     -0.429141    0.739754    2.053601
H     -1.116198    2.262102    1.454709
H     -2.729032    0.696431    2.324080
H     -3.124021    1.250947    0.693438
H     -0.640336   -2.323143    1.069225
H     -0.303349   -2.849901   -0.589040
H      2.237621    1.852268    0.156847
H     -2.169616    0.790165   -1.138154
H     -2.186435   -1.685400   -1.128542
