48

C      5.424547    2.292324    0.793277
C     -0.454209   -3.411460    0.553821
C      0.222877   -3.220987   -0.776843
C     -0.746348   -2.067413    1.190210
C      1.347255    1.885656    1.935872
C      2.663697    2.021160    1.571605
C      1.081784   -1.984719   -0.817081
C     -0.068965   -0.034755   -1.890195
C     -1.492537    0.475092   -1.828685
C     -0.854595    0.806397    1.595555
C      2.425221    0.380061   -0.167448
C      0.552579    0.970567    1.225341
C      3.196488    1.280567    0.536025
C     -1.023010   -1.099384    0.060428
C      1.086528    0.238924    0.199183
C     -1.705064    0.158568    0.554783
C      0.289885   -0.724495   -0.567849
C     -4.665435    0.652402   -1.060444
F     -4.794930   -0.346094   -0.140117
F     -5.856161    1.363038   -1.069842
F     -4.486873    0.113959   -2.320185
N     -1.837576    1.049394   -0.562861
O     -3.315395    2.828951   -1.751232
O     -3.692509    2.463778    0.638173
O      4.535988    1.405046    0.150476
S     -3.371733    1.793887   -0.662400
H      5.374945    3.327625    0.375588
H      5.310881    2.310421    1.883792
H      6.468474    1.916173    0.600414
H      0.104248   -4.080267    1.237164
H     -1.435912   -3.893793    0.365077
H      0.891377   -4.090522   -0.933111
H     -0.507290   -3.232941   -1.623914
H     -1.613007   -2.108473    1.876113
H      0.176299   -1.722324    1.687724
H      0.899162    2.451512    2.743183
H      3.309832    2.712782    2.090783
H      1.835368   -2.070763   -0.007689
H      1.581813   -1.966044   -1.804074
H     -0.002233   -0.789147   -2.676609
H      0.631610    0.789788   -2.119379
H     -1.574553    1.276670   -2.591242
H     -2.228983   -0.310294   -2.147447
H     -0.949823    0.290478    2.594775
H     -1.270833    1.839681    1.770369
H      2.836552   -0.214528   -0.992412
H     -1.621192   -1.626629   -0.690824
H     -2.678243   -0.099868    0.972152
