33

C      4.143675    0.618370    0.124940
C      3.029857   -0.043306   -0.038111
C      1.691095    0.574953   -0.217853
C      0.631309   -0.512703   -0.042757
C     -0.741892   -0.004566   -0.201361
C     -1.877147   -0.924557   -0.003424
C     -3.139044   -0.178977   -0.221876
O     -3.790822   -0.426966   -1.281670
O     -3.607923    0.753368    0.671451
C     -0.344919    1.576045    0.144943
C      1.367916   -0.229627   -0.155792
C     -0.946091   -0.862213    0.232172
C     -0.069232    0.202597   -0.362089
In     0.000000    0.000000    0.000000
H      4.320519    1.659088    0.161961
H      3.115975   -1.136258   -0.036536
H      1.553125    1.325299    0.618202
H      1.544986    1.041249   -1.211907
H      0.818054   -1.277957   -0.855461
H      0.799983   -1.079857    0.906206
H     -0.899674    1.016996   -0.461270
H     -1.822684   -1.252788    1.071099
H     -1.776626   -1.797333   -0.687036
H     -3.992765    1.645946    0.309175
H     -1.144634    2.107938   -0.369215
H     -0.283061    1.707367    1.220516
H      1.663285   -0.145363    0.907986
H      1.394889   -1.313116   -0.476294
H      2.042420    0.304240   -0.836291
H     -0.447888   -1.397164    1.091918
H     -1.076790   -1.677823   -0.540649
H     -1.896730   -0.481530    0.608493
H     -0.259166    0.208650   -1.465698
