48

C      5.943139   -0.204594    0.431265
C     -4.711530   -1.339286    0.462200
C     -0.810814    2.474672   -1.953742
C      0.300987    2.897413   -0.985931
C     -0.828129    0.963269   -1.949914
C      2.158473   -1.842723   -0.748785
C      3.389450   -1.346831   -0.383672
C      0.019389    2.372830    0.383031
C     -0.650223    0.479069    1.790621
C     -1.918525   -0.304913    1.761623
C     -0.283238   -1.744672   -0.924798
C      2.337335    0.576052    0.492392
C      0.992630   -1.111102   -0.486392
C      3.491979   -0.124417    0.244728
C     -1.253186    0.522247   -0.570039
C      1.066256    0.112748    0.140035
C     -1.501734   -0.965239   -0.520134
C     -0.156181    0.874303    0.413027
N     -1.881289   -1.354969    0.796745
O     -3.491269   -3.007806    2.141501
O     -3.191694   -3.389129   -0.232925
O      4.707557    0.420476    0.633237
S     -3.293783   -2.328753    0.840547
H      6.612907    0.130984    1.272425
H      6.442416    0.095524   -0.508893
H      5.895282   -1.308507    0.519593
H     -4.902193   -1.321989   -0.641994
H     -4.647892   -0.313286    0.842801
H     -5.648310   -1.781852    0.899964
H     -0.585933    2.891171   -2.954152
H     -1.762581    2.826176   -1.531537
H      0.279304    3.992080   -0.959819
H      1.247951    2.570277   -1.417559
H     -1.487208    0.547544   -2.725376
H      0.234909    0.636224   -2.081158
H      2.115022   -2.808291   -1.241677
H      4.276328   -1.927117   -0.595284
H      0.728597    2.771154    1.101446
H     -0.987178    2.791430    0.682568
H     -0.841493    1.391720    2.418700
H      0.155212   -0.071315    2.359569
H     -2.795798    0.365966    1.658793
H     -2.029791   -0.787485    2.771262
H     -0.342985   -2.741005   -0.398130
H     -0.267577   -1.985135   -2.006511
H      2.339949    1.550491    0.986568
H     -2.177357    1.034283   -0.265422
H     -2.287179   -1.177680   -1.280287
