47

C      6.141684   -0.926440    0.018377
C      4.918497   -0.233788    0.569004
C     -1.024139   -2.462337    0.941349
C     -1.028860   -2.756794   -0.517178
C     -1.987698   -1.391083    1.327071
C      1.244918    1.375651    1.673166
C      2.462894    0.843185    1.308461
C     -1.047085   -1.584899   -1.429736
C     -1.441215    0.788182   -1.757623
C     -2.668894    1.584677   -1.512722
C     -1.183677    1.636121    1.461661
C      1.356452   -0.400048   -0.376215
C     -3.737403    2.978778    0.187858
C      0.076803    1.015027    1.005787
C      2.529167   -0.066189    0.260828
C     -2.214978   -0.333335    0.312961
C      0.130756    0.120602   -0.026875
C     -2.424935    1.024812    0.924197
C     -1.118270   -0.248143   -0.722264
N     -2.944071    1.863686   -0.138984
O     -3.988574    3.238332    1.384491
O      3.743500   -0.615069   -0.123866
H      6.239269   -1.963729    0.434707
H      6.154147   -0.973122   -1.086453
H      7.030010   -0.335872    0.330531
H      4.852068   -0.469992    1.650790
H      5.114635    0.865447    0.480534
H     -1.322319   -3.421767    1.463359
H     -0.000863   -2.266059    1.361820
H     -1.868467   -3.484027   -0.718261
H     -0.106123   -3.352109   -0.762378
H     -1.620241   -0.961470    2.303511
H     -2.959126   -1.891344    1.614749
H      1.219489    2.085689    2.496706
H      3.384340    1.119153    1.824984
H     -2.023734   -1.643538   -2.002368
H     -0.282701   -1.598994   -2.227089
H     -0.575800    1.506741   -1.857423
H     -1.531483    0.349572   -2.795675
H     -3.576447    1.128586   -2.005252
H     -2.552680    2.575828   -2.032048
H     -1.134221    2.707411    1.107217
H     -1.177513    1.724474    2.574355
H      1.383892   -1.102712   -1.190542
H     -4.136351    3.618738   -0.573974
H     -3.153551   -0.587122   -0.243928
H     -3.151101    0.919290    1.759402
