48

C      5.494759   -1.676135   -0.134600
C     -4.125276   -2.923927   -0.468158
C     -0.350412    3.523000    0.492041
C      0.864891    3.178524   -0.341229
C     -0.725944    2.274487    1.263625
C      1.704135   -1.474116    1.625514
C      2.950516   -1.553696    1.065192
C      0.428643    2.153029   -1.356901
C     -0.745738    0.076294   -1.813953
C     -1.484722   -1.110427   -1.278508
C     -0.603092   -0.665591    1.742330
C      2.230367   -0.034386   -0.666827
C      0.705328   -0.668768    1.039873
C      3.189882   -0.825468   -0.079843
C     -1.169529    1.256755    0.260142
C      0.947868    0.051977   -0.096440
C     -1.633501   -0.031468    0.885780
C     -0.079926    0.888573   -0.715250
N     -2.147846   -0.936687   -0.059108
O     -4.611743   -0.323105   -0.917627
O     -4.324984   -1.031991    1.373747
O      4.443041   -0.890360   -0.664308
S     -3.806040   -1.216906   -0.030999
H      5.900941   -1.192051    0.773732
H      5.152072   -2.704886    0.122798
H      6.307905   -1.792063   -0.859722
H     -3.473486   -3.580488    0.160127
H     -5.173691   -3.176292   -0.143557
H     -3.967678   -3.101608   -1.544466
H     -1.188131    3.722144   -0.207316
H     -0.184733    4.390464    1.157093
H      1.709181    2.815609    0.277400
H      1.181395    4.082908   -0.866189
H      0.132631    1.894548    1.869420
H     -1.586490    2.527685    1.902739
H      1.491101   -2.042664    2.533526
H      3.739567   -2.162405    1.489630
H      1.130995    1.977499   -2.172642
H     -0.480087    2.609042   -1.856062
H     -1.375415    0.773711   -2.395623
H      0.074112   -0.294138   -2.463371
H     -0.789533   -1.972296   -1.213200
H     -2.239515   -1.409682   -2.062190
H     -0.909512   -1.722773    1.926771
H     -0.492601   -0.157688    2.744483
H      2.391451    0.539408   -1.556363
H     -2.015567    1.676247   -0.311761
H     -2.485592    0.260162    1.570250
