47

C      6.186039    0.833187   -0.234574
C      4.992480    0.230778    0.466316
C     -2.354832    2.673728    0.229639
C     -2.096440    2.469224   -1.239284
C     -2.504223    1.385645    0.986944
C      1.262145   -1.113017    1.841983
C      2.475853   -0.663932    1.376431
C     -0.797039    1.671961   -1.347586
C     -1.131882   -0.691122   -1.874312
C     -1.366131   -2.081410   -1.327064
C     -1.172973   -1.300608    1.697416
C      1.411003    0.417447   -0.445887
C     -3.318803   -3.152152   -0.218443
C      0.115587   -0.796342    1.161525
C      2.565544    0.113563    0.216637
C     -2.285047    0.233547    0.057941
C      0.189583   -0.041824    0.033710
C     -2.312157   -1.101145    0.745295
C     -1.012425    0.326813   -0.734993
N     -2.335514   -2.127191   -0.279166
O     -4.170813   -3.194734    0.700211
O      3.802816    0.552606   -0.229577
H      6.429186    0.206206   -1.134577
H      6.000320    1.861207   -0.567399
H      7.058354    0.823498    0.469228
H      4.911431    0.662309    1.499720
H      5.124047   -0.858625    0.570702
H     -1.492436    3.263000    0.635268
H     -3.237392    3.337490    0.326266
H     -2.915679    1.965382   -1.757841
H     -1.875401    3.481598   -1.665562
H     -3.576031    1.333114    1.323450
H     -1.901247    1.337451    1.909777
H      1.284641   -1.709752    2.748219
H      3.418389   -0.878622    1.866790
H     -0.054637    2.255405   -0.728546
H     -0.412194    1.660696   -2.370589
H     -0.144935   -0.673307   -2.397115
H     -1.960540   -0.373101   -2.519844
H     -1.700244   -2.716597   -2.174449
H     -0.396022   -2.524810   -0.987629
H     -1.365661   -0.884965    2.709637
H     -1.043176   -2.410084    1.838156
H      1.446841    1.018162   -1.347866
H     -3.359744   -3.929569   -0.968476
H     -3.124816    0.230074   -0.683708
H     -3.255824   -1.121186    1.362632
