62

C      9.589837    1.085823   -0.266079
C     -9.640546   -0.187944    1.049069
C     -0.900033    3.393644    0.076150
C      8.935502   -1.357429    0.961899
C     -8.655811   -1.273739   -1.523897
C      8.951672   -0.010461   -1.076903
C     -8.831258    0.640035    0.075707
C     -1.428313    2.224424    0.248899
C      3.641791    0.979685    0.962656
C      3.726175   -0.980920   -0.302399
C     -3.508373    0.358211   -0.835684
C     -3.416498   -1.145602    1.006402
C      0.857878   -1.271858    0.209222
C      5.014516    1.016134    1.002329
C      5.111411   -0.972858   -0.280942
C     -4.875656    0.193350   -0.831939
C     -4.787570   -1.291802    0.986700
C     -0.525918   -1.340324    0.163862
C      0.723442    1.092700    0.274866
C      8.033960   -0.805747   -0.137620
C     -7.879958   -0.242380   -0.734304
C     -0.657012    1.014442    0.229620
C      2.963592   -0.018681    0.309936
C     -2.745700   -0.315821    0.094108
C      1.492828   -0.059935    0.264615
C      5.796815    0.024191    0.370948
C     -5.549323   -0.614696    0.053700
C     -1.300613   -0.200101    0.172889
O      7.167824    0.106991    0.440316
O     -6.894300   -0.788098    0.070840
H     10.564884    0.758096    0.098902
H      9.656963    2.034027   -0.865222
H      8.962314    1.366041    0.621104
H    -10.103612    0.541980    1.767423
H     -9.022541   -0.861173    1.648949
H    -10.509152   -0.693397    0.555619
H     -1.517124    4.278402    0.098755
H      0.142458    3.524599   -0.096263
H      9.976473   -1.447858    0.580874
H      8.582842   -2.321402    1.333572
H      8.951957   -0.664040    1.840865
H     -9.051388   -0.842756   -2.477931
H     -8.062313   -2.148545   -1.787585
H     -9.553113   -1.643024   -0.974275
H      9.697959   -0.684980   -1.548507
H      8.275328    0.457403   -1.836709
H     -9.520656    1.177051   -0.578740
H     -8.222991    1.345260    0.649031
H     -2.493242    2.165201    0.425909
H      3.059535    1.747770    1.451851
H      3.211386   -1.773920   -0.820638
H     -3.018508    1.015387   -1.574252
H     -2.856363   -1.689460    1.748450
H      1.442183   -2.195916    0.200581
H      5.561361    1.800399    1.515006
H      5.663985   -1.781120   -0.796564
H     -5.420864    0.756904   -1.595812
H     -5.260435   -1.951323    1.720533
H     -1.017459   -2.319846    0.119830
H      1.284119    2.019037    0.324286
H      7.594438   -1.649964   -0.673817
H     -7.408785    0.429933   -1.477358
