80

C     10.728142    2.897368   -1.402875
C     -8.823856    3.583623   -0.873247
C     -2.477512   -4.345931   -0.603870
C     10.462727   -0.929136   -1.201181
C     -6.737921    1.683631    0.007865
C     11.096728    1.483433   -1.007884
C     -8.720396    2.176605   -1.412416
C     -1.541423   -3.534935   -0.603713
C      8.635202    0.549574    0.460057
C     -8.723243    0.113321    1.825581
C      8.686156    0.770122   -1.039002
C     -9.053288    1.105414    0.746108
C      2.833263    0.340080    1.366689
C      3.040979   -1.288695   -0.329644
C     -4.114850   -1.176259    1.564964
C     -4.163356   -1.810076   -0.691399
C     -0.074274    0.093972    0.960059
C      4.221527    0.485250    1.249915
C      4.402440   -1.164528   -0.459787
C     -5.478772   -1.205927    1.601238
C     -5.540812   -1.837571   -0.635651
C     -1.427609   -0.169736    0.889767
C      7.223342    0.804995    0.940015
C     -8.613704   -1.302094    1.342768
C      0.291366   -2.050745    0.085909
C     10.100219    0.518168   -1.560030
C     -8.102107    1.247175   -0.372793
C     -1.066833   -2.346398   -0.002215
C      2.243790   -0.594685    0.524901
C     -3.401667   -1.481020    0.396115
C      0.803655   -0.878889    0.546290
C      5.016273   -0.195631    0.406086
C     -6.259676   -1.527975    0.533548
C     -1.951515   -1.360694    0.421695
O      6.380959   -0.068207    0.262606
O     -7.603224   -1.579725    0.443003
H     11.598937    3.580629   -1.163054
H     10.558201    2.995319   -2.486476
H      9.881376    3.270792   -0.799968
H     -9.900467    3.897767   -0.871360
H     -8.386610    3.600980    0.129661
H     -8.224940    4.287290   -1.493604
H     -1.893306   -5.147571   -1.617412
H     -3.198534   -5.007480   -0.635448
H     11.221390   -1.317513   -1.907585
H     10.832502   -0.914070   -0.136634
H      9.539849   -1.550095   -1.301441
H     -6.569503    2.790246   -0.101992
H     -6.001819    1.172265   -0.696012
H     -6.501841    1.339715    1.012088
H     12.084958    1.274558   -1.433933
H     11.195767    1.436182    0.099276
H     -8.123888    2.201146   -2.344982
H     -9.729309    1.835318   -1.696977
H     -0.719036   -3.831727   -1.443405
H      9.302786    1.261510    0.990839
H      8.858380   -0.500241    0.725986
H     -7.893273    0.418299    2.470316
H     -9.626497    0.125708    2.504270
H      7.996609    0.070688   -1.554898
H      8.355477    1.791152   -1.240198
H     -9.306501    2.116425    1.183351
H    -10.059275    0.765194    0.340059
H      2.250819    0.899089    2.038853
H      2.570590   -2.036834   -0.990865
H     -3.508283   -0.913617    2.438066
H     -3.643657   -2.030881   -1.639723
H      0.264742    1.043573    1.307544
H      4.725899    1.236614    1.901347
H      5.032285   -1.704669   -1.106213
H     -5.981155   -0.966772    2.526255
H     -6.045882   -2.122286   -1.552706
H     -2.120337    0.613205    1.229777
H      6.944796    1.860299    0.686670
H      7.183998    0.651559    2.049718
H     -9.582774   -1.467426    0.753852
H     -8.668051   -2.042780    2.138912
H      0.940098   -2.848248   -0.246065
H     10.075754    0.604666   -2.650544
H     -8.021004    0.258150   -0.910897
