49

C     -7.650469   -0.308850    1.600671
C      0.806680    2.016763   -0.732629
C     -6.482461    0.450078   -1.011617
C     -6.486973   -1.045122    0.994591
C      5.776488    1.214645    0.286757
C      6.127138   -0.981423   -0.519595
C     -1.083436   -1.525098   -0.992687
C     -1.266178    0.389024    0.362223
C      3.195096   -1.373382    0.033679
C      7.130366    1.458657    0.351602
C      7.501564   -0.737360   -0.455137
C     -2.458947   -1.632518   -1.028555
C     -2.660942    0.282542    0.327520
C      1.819064   -1.481638   -0.007386
C      2.969065    0.927786   -0.421452
C      1.586838    0.828135   -0.464532
C     -5.627990   -0.125162    0.126588
C      5.253368    0.011931   -0.142160
C     -0.453719   -0.510011   -0.295230
C      3.797892   -0.149706   -0.175751
C      8.006658    0.465824   -0.025752
C     -3.275152   -0.733290   -0.370890
C      1.004278   -0.396958   -0.253838
O      9.368467    0.720662    0.042825
O     -4.640711   -0.905010   -0.452273
H     -8.072693   -0.975456    2.391485
H     -7.368573    0.628930    2.102007
H     -8.481076   -0.162583    0.869209
H      0.392730    2.159705   -1.716529
H      1.205583    2.935699   -0.177241
H      0.663153    2.513369   -0.419645
H     -7.246906   -0.274891   -1.334723
H     -5.798658    0.604285   -1.884161
H     -6.916155    1.417436   -0.755375
H     -5.855645   -1.435054    1.795609
H     -6.902676   -1.862418    0.374080
H      5.116005    2.020201    0.592000
H      5.734791   -1.933255   -0.859319
H     -0.432479   -2.234275   -1.511455
H     -0.818779    1.190280    0.916651
H      3.825609   -2.232890    0.228344
H      7.480837    2.426623    0.698213
H      8.169738   -1.518959   -0.751855
H     -2.913472   -2.428407   -1.576535
H     -3.276416    0.995362    0.847706
H      1.321648   -2.429190    0.153477
H      3.411604    1.883048   -0.586225
H     -5.290223    0.735191    0.717818
H      9.796068    1.116731   -0.794323
