62

C      9.665618    0.889551    0.697764
C     -9.602679   -0.964886    1.885950
C     -0.782167    3.738481    0.150480
C      8.797822   -1.339024   -1.043132
C     -8.663034   -1.727824   -0.695822
C      8.899556   -0.281927    1.216624
C     -8.746316    0.001962    1.091588
C     -1.381169    2.572231    0.143048
C      3.647392   -0.929189    0.201342
C      3.678084    1.216801   -0.714326
C     -3.484010   -0.784600    0.521117
C     -3.484986    0.888597   -1.137624
C      0.746300   -0.997425   -0.426914
C      5.051172   -0.951312    0.204519
C      5.047856    1.219739   -0.721694
C     -4.876349   -0.824705    0.440006
C     -4.851127    0.842139   -1.209901
C     -0.630795   -1.016754   -0.425851
C      0.757885    1.336743   -0.067141
C      7.973260   -0.873768    0.157915
C     -7.809929   -0.858589    0.220757
C     -0.629848    1.353688   -0.060022
C      2.931429    0.152116   -0.256768
C     -2.787766    0.088010   -0.283109
C      1.476410    0.155583   -0.251608
C      5.785944    0.114940   -0.253644
C     -5.604322   -0.031966   -0.408740
C     -1.313978    0.149707   -0.244362
O      7.146486    0.147083   -0.273369
O     -6.967077   -0.041368   -0.517443
H      8.977029    1.558369    0.105353
H      9.958788    1.520144    1.581902
H     10.546217    0.632672    0.097927
H    -10.032202   -0.473981    2.781001
H     -8.965910   -1.815322    2.160833
H    -10.412241   -1.356843    1.233721
H     -1.338837    4.675164    0.303909
H      0.276817    3.858424    0.006681
H      8.126657   -1.559482   -1.890125
H      9.603835   -0.631316   -1.271955
H      9.272824   -2.294467   -0.741213
H     -8.589668   -2.784447   -0.369923
H     -9.685625   -1.331169   -0.705386
H     -8.283842   -1.690680   -1.743783
H      9.575012   -1.091044    1.544152
H      8.317166    0.035269    2.104062
H     -8.080228    0.579697    1.755964
H     -9.344656    0.666794    0.455837
H     -2.452382    2.572362    0.306504
H      3.112381   -1.784175    0.568485
H      3.087510    2.068642   -1.075149
H     -2.940034   -1.424895    1.202753
H     -2.895475    1.562155   -1.767992
H      1.299684   -1.917153   -0.570136
H      5.570611   -1.822522    0.573963
H      5.603785    2.054215   -1.080282
H     -5.335875   -1.541764    1.110678
H     -5.357915    1.502685   -1.908372
H     -1.194895   -1.948134   -0.567454
H      1.352034    2.221856    0.070132
H      7.495516   -1.787460    0.543875
H     -7.255742   -1.497631    0.912281
