80

C    -12.341938    0.581095    2.031244
C     11.462918    2.463215    0.048261
C      1.232124    1.175260    1.611951
C    -10.659990    1.145426   -0.357746
C      9.634135    1.072842    1.824469
C    -10.834291    0.512635    2.049979
C     10.039407    2.917411    0.288878
C      1.696599    0.207965    0.872556
C     -7.801870    0.601329    0.901367
C      8.034888   -0.314701   -0.300655
C     -8.777470    1.662051    1.194743
C      8.992878    0.822174   -0.584688
C     -3.485073   -2.308066   -1.053132
C     -3.282930    0.033645   -0.504718
C      3.534065   -2.884767   -0.888107
C      3.771599   -0.585771   -1.204056
C     -0.690294   -2.190198   -1.685413
C     -4.845195   -2.185250   -1.022853
C     -4.679751    0.133090   -0.480364
C      4.877650   -3.068128   -1.012557
C      5.154691   -0.747781   -1.336117
C      0.671116   -2.255208   -1.673695
C     -7.755043    0.042657   -0.477107
C      7.989629   -1.171451   -1.543717
C     -0.516057   -0.503163    0.018249
C    -10.216352    1.463243    1.044387
C      9.124684    1.755877    0.592557
C      0.867512   -0.594744    0.004974
C     -2.729774   -1.179543   -0.789447
C      2.926047   -1.645220   -0.977134
C     -1.278833   -1.296170   -0.821544
C     -5.457772   -0.961274   -0.735400
C      5.730731   -1.991917   -1.241344
C      1.475470   -1.488629   -0.859181
O     -6.796905   -0.920651   -0.727556
O      7.095046   -2.220139   -1.367060
H    -12.671681    1.143450    2.926697
H    -12.795085   -0.439802    2.121301
H    -12.728566    1.123632    1.145391
H     11.716435    1.757086    0.890668
H     11.527434    1.869969   -0.876422
H     12.177052    3.290729    0.118153
H      0.192432    1.421432    1.607297
H      1.856668    1.775824    2.261837
H     -9.958764    1.526702   -1.125878
H    -10.972754    0.095310   -0.512426
H    -11.622993    1.720511   -0.602459
H     10.048760    1.887900    2.488319
H      8.800495    0.629816    2.445274
H     10.447386    0.363264    1.661973
H    -10.558115   -0.544373    1.862920
H    -10.495381    0.746404    3.075767
H     10.037034    3.628886    1.135673
H      9.702947    3.490455   -0.612286
H      2.753248    0.006130    0.933624
H     -7.871746   -0.254865    1.670919
H     -6.798946    1.015269    1.147927
H      7.113569   -0.061126    0.174558
H      8.558092   -1.003918    0.465351
H     -8.471385    2.554254    0.549513
H     -8.514244    2.053576    2.232941
H      9.979959    0.389829   -0.843563
H      8.659709    1.413443   -1.460799
H     -2.980404   -3.241571   -1.271655
H     -2.656311    0.888530   -0.305532
H      2.836268   -3.714761   -0.707448
H      3.400831    0.422134   -1.297859
H     -1.308722   -2.814268   -2.346873
H     -5.438137   -3.055508   -1.225426
H     -5.044858    1.126298   -0.265777
H      5.322265   -4.044253   -0.938964
H      5.766950    0.138816   -1.551164
H      1.161250   -2.958659   -2.351845
H     -8.730402   -0.412504   -0.791529
H     -7.594398    0.865190   -1.232086
H      7.577925   -0.559250   -2.405696
H      9.007256   -1.509147   -1.842618
H     -1.020389    0.188194    0.688969
H    -10.702984    2.462701    1.285591
H      8.130651    2.189758    0.837618
