74

C      9.815121    2.696249    1.194459
C    -10.829490    2.460952    0.264310
C     -1.406454   -1.853047   -3.561100
C     10.007670   -1.093344    0.779483
C     -9.177415    0.314567   -0.784560
C      9.742458    1.227208    1.520385
C     -9.481270    2.148317    0.885097
C     -1.723049   -1.707222   -2.288388
C      3.729303   -0.404217    0.184376
C      3.221712    0.196863   -2.047247
C     -3.709142   -0.583002   -0.290695
C     -2.988639   -1.912066    1.511064
C      0.889096   -0.260761    0.695767
C      5.067248   -0.167828   -0.024818
C      4.583067    0.441462   -2.273663
C     -5.047627   -0.784278    0.108087
C     -4.291661   -2.102964    1.893742
C     -0.441511   -0.490774    1.002076
C      9.175244    0.593728   -0.789459
C     -7.900953    0.246821    1.292105
C      7.776828    0.287990   -0.373038
C     -7.825291   -1.247024    1.099117
C      0.526699   -0.958028   -1.543797
C     10.115135    0.363361    0.359439
C     -9.214289    0.687029    0.661395
C     -0.819054   -1.201661   -1.272340
C      2.789661   -0.227393   -0.815860
C     -2.678284   -1.147433    0.410927
C      1.394794   -0.485318   -0.563520
C      5.499858    0.255247   -1.252276
C     -5.380836   -1.537481    1.196273
C     -1.294907   -0.962590    0.010561
O      6.848459    0.488463   -1.446825
O     -6.652813   -1.751224    1.617405
H     10.194805    2.837806    0.157842
H     10.519574    3.189082    1.876509
H      8.816865    3.188519    1.250417
H    -11.363055    1.536267   -0.064759
H    -10.741494    3.124563   -0.619001
H    -11.481953    3.024402    0.993016
H     -2.098404   -2.232024   -4.297675
H     -0.429342   -1.597055   -3.932608
H      9.467958   -1.689530    0.008405
H      9.449451   -1.209089    1.713686
H     11.025772   -1.500602    0.830194
H     -8.099583    0.380078   -1.114987
H     -9.703720    1.087054   -1.392148
H     -9.532461   -0.700195   -1.001385
H     10.477627    0.987617    2.341567
H      8.768306    0.959270    1.921011
H     -9.451720    2.371607    1.956699
H     -8.693083    2.782678    0.402494
H     -2.722112   -2.000687   -2.009117
H      3.352828   -0.739468    1.142088
H      2.481704    0.330751   -2.816814
H     -3.533556    0.044757   -1.171821
H     -2.192679   -2.382000    2.100358
H      1.531604    0.108147    1.491784
H      5.765636   -0.314220    0.768268
H      4.897463    0.775787   -3.255097
H     -5.815562   -0.336018   -0.512264
H     -4.555960   -2.702442    2.758321
H     -0.823746   -0.314446    1.978671
H      9.429149   -0.037234   -1.668260
H      9.197725    1.639499   -1.157362
H     -7.936019    0.463610    2.405440
H     -7.027982    0.782761    0.937056
H      7.646622   -0.761804   -0.039474
H      7.401179    0.934547    0.448085
H     -8.721155   -1.748214    1.544608
H     -7.878150   -1.392467   -0.028961
H      0.929480   -1.132683   -2.528839
H     11.142962    0.595415   -0.009013
H    -10.014641    0.115353    1.180411
