35

C     -3.003037    1.045501   -1.348381
C     -2.420120   -1.351299   -1.118670
C      5.197423   -0.060999   -1.113832
C      4.843385    1.047373   -0.377682
C      4.284262   -1.083287   -1.233562
C      3.584504    1.113240    0.224467
C      3.021336   -1.020139   -0.630999
C     -3.041000    0.128564    1.500701
C     -0.828858   -0.794109    1.211543
C     -2.018052    0.045036   -0.784591
C      2.679992    0.091919    0.101338
C      1.350560    0.165281    0.739193
C     -1.763532    0.260018    0.691485
O     -2.664721    0.384266    2.840865
O      1.114710    1.220869    1.394512
O     -1.312817    1.549345    0.882221
O      0.434056   -0.821669    0.639391
H     -3.921707    1.142670   -0.757592
H     -3.259290    0.701617   -2.377747
H     -2.544618    2.049563   -1.405817
H     -3.076450   -1.357919   -2.028208
H     -2.979451   -1.875221   -0.330003
H     -1.532578   -1.993925   -1.349140
H      6.177041   -0.111088   -1.581797
H      5.563028    1.846088   -0.286927
H      4.558277   -1.947033   -1.806381
H      3.328318    1.994218    0.798207
H      2.333333   -1.854144   -0.754378
H     -3.440145   -0.898196    1.471567
H     -3.785023    0.907005    1.260160
H     -0.759100   -0.593568    2.331135
H     -1.356280   -1.782998    1.067013
H     -1.044614    0.248352   -1.297240
H     -2.575711   -0.453243    3.357486
H     -1.143122    2.057912    0.071664
