61

C     -8.484778   -0.740390    1.808271
C      9.933469    0.166374   -1.317671
C      1.412992    1.231484    1.896259
C     -9.025202    0.991258   -1.519804
C      8.595478   -0.628471    1.177715
C     -9.168759   -0.010795    0.680698
C      8.676701   -0.638847   -1.303582
C     -3.903473   -0.546240   -0.521989
C     -3.584005    1.614150    0.309432
C      3.523637    0.561607   -0.065150
C      3.120837   -1.766299   -0.129723
C     -0.972851   -0.630820   -1.041206
C     -5.291267   -0.361029   -0.531875
C     -4.938542    1.844004    0.318162
C      4.898092    0.313226   -0.073148
C      4.482903   -1.985782   -0.136921
C      0.395485   -0.850828   -1.038990
C     -0.781218    0.784733    0.832022
C      0.607461    0.574266    0.851313
C     -8.188788    0.255008   -0.469371
C      7.792814   -0.316416   -0.094766
C     -3.024580    0.423906   -0.106459
C      2.612430   -0.460064   -0.092738
C     -1.586021    0.185089   -0.113568
C     -5.820975    0.832355   -0.113186
C      5.394579   -0.961549   -0.109057
C      1.177699   -0.234826   -0.077399
O     -7.157564    1.092764   -0.091822
O      6.728050   -1.208596   -0.116821
H     -9.173011   -1.503468    2.212922
H     -8.224309   -0.018428    2.604806
H     -7.588357   -1.299086    1.442902
H     10.043757    0.636524   -2.335652
H      9.842291    0.941447   -0.520445
H     10.788336   -0.488677   -1.067995
H      0.836634    1.198568    2.861957
H      1.651844    2.293510    1.637881
H      2.361445    0.695291    2.063153
H     -9.822051    0.325743   -1.932503
H     -8.389254    1.366372   -2.337631
H     -9.545318    1.849838   -1.021286
H      9.159326    0.253688    1.512924
H      7.922711   -1.046374    1.930293
H      9.350664   -1.402546    0.918776
H     -9.619966    0.945340    1.019000
H     -9.972129   -0.654310    0.284788
H      8.054361   -0.427427   -2.192678
H      8.861652   -1.745197   -1.262786
H     -3.494254   -1.497914   -0.856720
H     -2.909390    2.391453    0.640710
H      3.166637    1.590866   -0.040969
H      2.381549   -2.556617   -0.151489
H     -1.577604   -1.107627   -1.785003
H     -5.920735   -1.165441   -0.870506
H     -5.372108    2.783791    0.646892
H      5.568844    1.161941   -0.050087
H      4.835312   -3.013725   -0.166171
H      0.878228   -1.500619   -1.778973
H     -1.230713    1.425544    1.567442
H     -7.839966   -0.706488   -0.839961
H      7.550967    0.744756   -0.078126
