65

C      8.833648   -0.221165    2.392163
C    -10.503471    0.609672    1.294138
C      2.082930    0.148376   -3.293617
C      8.816462   -2.374768    0.357110
C     -9.115636    1.778862   -1.101288
C      7.604067   -1.056407    2.097625
C     -9.460855   -0.117581    0.491462
C      1.042484   -0.498578   -2.887514
C     -4.029426   -0.792973   -1.469113
C     -4.057102    1.044432    0.064123
C      3.050981    1.444547   -0.046775
C      3.111568   -0.787133   -0.772426
C     -1.227711    0.583188    0.473506
C      4.405614    1.472266    0.058140
C      4.500371   -0.761632   -0.665641
C     -5.380229   -0.832869   -1.509584
C     -5.442027    0.984610    0.007416
C      0.125897    0.658612    0.563585
C     -1.111782   -0.166867   -1.735568
C      7.569510   -0.363071   -0.297020
C      7.596788   -1.527381    0.651957
C     -8.447058    0.796968   -0.148821
C      0.291169   -0.109518   -1.706612
C     -3.357581    0.119235   -0.704031
C      2.348153    0.322586   -0.463832
C     -1.891840    0.173686   -0.660670
C      5.174312    0.363901   -0.249389
C     -6.131433    0.076771   -0.754330
C      0.892116    0.304925   -0.546184
O      6.512842    0.469301   -0.124126
O     -7.523685    0.005134   -0.825240
H      8.785316    0.739755    1.835123
H      8.782899    0.047831    3.479984
H      9.782043   -0.735351    2.232451
H    -11.282677    1.064340    0.624765
H    -10.116265    1.424234    1.901673
H    -11.050084   -0.090809    1.951783
H      2.652762   -0.143756   -4.182042
H      2.455802    1.040106   -2.798156
H      9.399840   -1.960823   -0.492385
H      8.463985   -3.378279    0.052028
H      9.418389   -2.509256    1.272888
H     -9.882052    1.259884   -1.676674
H     -8.390470    2.373017   -1.656292
H     -9.663759    2.512587   -0.440362
H      7.560804   -1.930579    2.774996
H      6.723092   -0.430546    2.312396
H     -9.974186   -0.744223   -0.260945
H     -8.913212   -0.810192    1.162523
H      0.678699   -1.370344   -3.417644
H     -3.455835   -1.497446   -2.052247
H     -3.565975    1.788119    0.686388
H      2.421579    2.304652    0.191845
H      2.592910   -1.669512   -1.097331
H     -1.834597    0.857826    1.340275
H      4.893534    2.374643    0.388430
H      5.059757   -1.673210   -0.941816
H     -5.941313   -1.555829   -2.119476
H     -5.991724    1.708298    0.605963
H      0.683389    0.975557    1.436448
H     -1.555093   -0.495003   -2.658494
H      7.678212   -0.734120   -1.369549
H      8.531621    0.229636   -0.169663
H      6.707051   -2.141347    0.525361
H     -7.933523    1.423010    0.596648
