39

C     -5.533862   -0.169555    0.563854
C      4.709372    0.298343    1.251290
C      4.235569    1.573680    0.626054
C      3.729126   -0.828069    0.953048
C      2.726976    1.515470    0.497995
C      3.225682   -0.671845   -0.456581
C     -1.542942   -1.874935   -1.726552
C     -2.907235   -2.004600   -1.843997
C     -1.851620   -0.244991   -0.051364
C     -4.140575    0.425561    0.662490
C      2.416443    0.569908   -0.653409
C     -0.982011   -0.995803   -0.831306
C     -3.209171   -0.374805   -0.169037
C      0.971121    0.317124   -0.783512
N     -3.768222    0.478008    2.037425
N     -3.701115   -1.251228   -1.062297
N      0.432389   -0.843764   -0.691414
O      0.149219    1.408182   -1.020246
H     -5.726208   -0.781136    1.478402
H     -5.587663   -0.863297   -0.300571
H     -6.316013    0.603591    0.454625
H      5.721053    0.071223    0.853891
H      4.742282    0.441043    2.353635
H      4.546095    2.482725    1.197838
H      4.638050    1.644346   -0.422368
H      2.922842   -0.892573    1.687356
H      4.312928   -1.784462    0.985664
H      2.282590    1.139856    1.431441
H      2.299822    2.519133    0.281491
H      2.682891   -1.598275   -0.731903
H      4.138690   -0.656094   -1.115991
H     -0.854597   -2.465296   -2.339834
H     -3.329284   -2.709060   -2.561657
H     -1.435008    0.452269    0.658980
H     -4.174570    1.467874    0.262333
H      2.765640    1.071114   -1.581710
H     -4.180893   -0.231194    2.646242
H     -3.691984    1.431259    2.438937
H     -0.715810    1.330269   -1.569449
