43

C      5.290668    0.123089    1.162405
C     -4.661819    0.373056    0.493899
C     -4.080716   -0.259235   -0.752580
C     -3.585988    0.676000    1.496032
C     -3.312812   -1.505090   -0.403555
C     -2.717744   -0.489688    1.815864
C      1.445442   -0.667400   -1.903543
C      2.570130   -0.088193   -2.439841
C      2.259530   -0.054519    0.254735
C      4.436507    1.164237    0.501051
C     -2.234523   -1.256129    0.627310
C      1.281610   -0.653294   -0.530294
C      3.373667    0.515994   -0.319417
C     -1.017362   -0.671843    0.017287
N      3.756667    1.993500    1.489082
N      3.505518    0.487120   -1.655010
N      0.137248   -1.239000    0.063505
O     -1.121811    0.542403   -0.634922
Cl     0.691944    0.000000    0.000000
Cl     0.684591    0.000000    0.000000
H      5.023556   -0.901947    0.792129
H      5.119571    0.106688    2.268655
H      6.367442    0.280010    1.001021
H     -5.441451   -0.279279    0.944093
H     -5.129497    1.332659    0.198311
H     -3.464394    0.484819   -1.276765
H     -4.933699   -0.570430   -1.389967
H     -4.115665    0.965439    2.449929
H     -2.980653    1.547951    1.167457
H     -2.796707   -1.855171   -1.326504
H     -3.998263   -2.286704   -0.071074
H     -1.820277   -0.104748    2.359672
H     -3.250211   -1.180210    2.499432
H      0.677394   -1.136804   -2.508723
H      2.676772   -0.110940   -3.512096
H      2.154708   -0.030138    1.335340
H      5.044603    1.857965   -0.111740
H     -1.935988   -2.279363    1.002703
H      3.348766    1.434718    2.260957
H      4.457606    2.673041    1.864758
H     -0.327825    1.061437   -0.977138
H     -0.691944    0.000000    0.000000
H     -0.684591    0.000000    0.000000
