37

C     -0.705582    2.043502    0.119422
C     -1.734753   -1.145993   -1.234393
C     -2.615217    0.269597    0.387891
C     -0.825368   -1.075324    0.995883
C      3.541107   -0.442276    0.257254
C      2.696262   -1.314475   -0.379479
C      3.130897    0.814180    0.650515
C      1.403638   -0.960893   -0.647870
C      1.827927    1.149529    0.371268
C     -0.450365    0.706625   -0.541382
C      0.951089    0.281779   -0.273801
N     -1.358351   -0.301522   -0.109077
C     -0.661376   -0.041051    0.021435
C      0.799940    0.175598   -0.062496
O      1.355551    1.189018   -0.498383
O      1.606662   -0.874003    0.398470
H     -0.496422    1.998592    1.190143
H     -0.111112    2.809209   -0.430016
H     -1.777867    2.322585   -0.076261
H     -2.836034   -1.052439   -1.469102
H     -1.572654   -2.212185   -1.062787
H     -1.220376   -0.792148   -2.170083
H     -3.198515   -0.619275    0.767418
H     -3.225857    0.691335   -0.428131
H     -2.466276    0.927708    1.244147
H     -1.531531   -1.092348    1.878370
H     -0.631601   -2.132058    0.722951
H      0.112141   -0.664194    1.412752
H      4.574551   -0.728438    0.470430
H      3.098373   -2.280401   -0.653892
H      3.767022    1.508197    1.145454
H      0.749278   -1.679627   -1.163565
H      1.471328    2.145926    0.673066
H     -0.565733    0.824835   -1.647127
H     -0.899790   -1.098820   -0.267142
H     -1.234606    0.593093   -0.671513
H     -0.966382    0.056166    1.079630
