46

C      3.684188   -1.186039   -1.170970
C     -3.975614   -1.584790   -0.234286
C      3.762434    2.526450   -1.741698
C     -3.557339    1.719272   -1.914551
C      2.757487    2.932189   -0.891773
C     -2.195658    1.929875   -1.943726
C      4.068442    1.193472   -1.835455
C     -4.099786    0.578595   -1.357467
C      2.047117    2.032093   -0.128893
C     -1.401743    0.925081   -1.378720
C      3.373930    0.279334   -1.085283
C     -3.296088   -0.409491   -0.800298
C      2.346326    0.695551   -0.216328
C     -1.945403   -0.207019   -0.825658
C      1.650500   -0.272378    0.577707
C     -1.094405   -1.236226   -0.261435
C      0.824210   -0.249790    2.839820
C     -1.538133   -1.262539    2.148329
C      0.433891   -0.124567    1.387406
C     -0.518622   -1.285393    1.069062
O      2.117759   -1.467830    0.624815
O     -0.842180   -2.207726   -1.061218
O      0.504310    0.612645    3.690362
O      1.556419   -1.341698    3.262414
O     -2.330943   -0.312955    2.260144
O     -1.624359   -2.306812    3.056383
O     -0.266474    1.031464    1.282597
O      0.231519   -2.467852    1.192741
H      4.213667   -1.578088   -0.306140
H      4.427132   -1.273618   -2.024817
H      2.824274   -1.785291   -1.532709
H     -4.729486   -1.942004   -0.987241
H     -3.297142   -2.436031   -0.054409
H     -4.539436   -1.267342    0.662999
H      4.324038    3.238823   -2.344825
H     -4.185842    2.506591   -2.357633
H      2.531964    4.002636   -0.834793
H     -1.755053    2.818375   -2.376605
H      4.854549    0.821425   -2.492470
H     -5.179456    0.470629   -1.364979
H      1.274152    2.430505    0.522122
H     -0.341178    1.121624   -1.429340
H      1.456431   -1.737855    4.196373
H     -2.391175   -2.470161    3.674255
H     -0.332363    1.569716    2.121833
H      0.173139   -3.022854    0.384356
