29

C     -3.863808    0.391212   -1.060873
C     -2.982724   -0.369870   -1.767087
C     -3.573634    0.737554    0.253657
C      2.874843   -1.049896    0.597206
C     -1.803049   -0.791068   -1.163415
C     -2.403688    0.312129    0.832211
C      3.163355   -0.344766   -0.480657
C      1.904752   -0.433363    1.541909
C     -0.257954   -0.885126    0.802056
C      1.008780    0.680881   -0.421784
C     -1.490615   -0.462455    0.136785
C      2.502628    0.971174   -0.641814
N      0.775225    0.125532    0.865120
O      2.895498    1.852246    0.363535
H     -4.780633    0.731497   -1.496524
H     -3.215034   -0.638807   -2.797848
H     -4.274873    1.342771    0.814546
H      3.327304   -2.039856    0.786616
H     -1.129317   -1.395306   -1.752851
H     -2.156769    0.570976    1.857870
H      3.847401   -0.691165   -1.225387
H      2.398461    0.282208    2.234750
H      1.552050   -1.271775    2.212155
H      0.184017   -1.763132    0.271482
H     -0.509815   -1.175953    1.852951
H      0.448461    1.626695   -0.572371
H      0.747064   -0.016665   -1.243034
H      2.661631    1.424574   -1.619607
H      2.150442    2.279756    0.820404
