29

C     -3.023348    0.117743   -0.180609
C     -1.418916    2.089155    0.692200
C     -1.084985   -1.425033   -0.468119
C      0.228929   -1.788036    0.238008
C      2.375826   -0.858934   -0.285969
C      3.310261    0.239328   -0.546940
C      0.519516    0.719141    0.054385
C     -1.730194   -0.378640    0.416048
C     -0.798907    0.708325    0.819035
C      1.124378   -0.621589   -0.017324
O      3.855715    0.109006   -1.839206
H     -3.377880   -0.656771   -0.891836
H     -2.930590    1.061647   -0.725124
H     -3.822815    0.216176    0.602217
H     -2.402119    2.079831    1.179565
H     -0.767094    2.789452    1.251471
H     -1.440379    2.434890   -0.358491
H     -1.726152   -2.329378   -0.489856
H     -0.857612   -1.029594   -1.481391
H      0.647178   -2.732354   -0.146157
H      0.037026   -1.797047    1.330796
H      2.740079   -1.872300   -0.319402
H      2.949084    1.242012   -0.345452
H      4.193666    0.081283    0.142118
H      1.143273    1.477744    0.555774
H      0.308251    1.096669   -0.966830
H     -2.027375   -0.932394    1.356171
H     -0.496106    0.624805    1.904805
H      4.471288   -0.665137   -1.878756
