42

C      1.814014    0.804450   -1.180697
C     -1.900801    1.246324   -1.779707
C      6.205976   -0.032527    0.833274
C     -5.865592   -0.990312    0.508040
C      5.885455   -0.889709   -0.185011
C      5.232619    0.706476    1.470050
C     -5.083066   -0.476723    1.530557
C     -5.430750   -0.783819   -0.775831
C      4.546173   -0.979748   -0.543878
C      3.888348    0.615864    1.109578
C     -3.935512    0.200478    1.247991
C     -4.265996   -0.097049   -1.076845
C      2.169311   -0.379758   -0.333007
C     -2.227713    1.161170   -0.316174
C      3.578215   -0.245985    0.088096
C     -3.490040    0.412375   -0.057728
N      1.313942   -0.492491    0.859163
N     -1.159457    0.794708    0.525984
P     -0.365349   -0.664507    0.364000
S     -1.237556   -2.075179    1.711506
S     -0.360318   -1.398565   -1.178857
H      1.254428    0.506079   -2.105624
H      1.203211    1.516547   -0.600266
H      2.721229    1.336607   -1.561362
H     -0.868772    1.613694   -1.962887
H     -1.946193    0.256051   -2.278531
H     -2.558420    1.991857   -2.311992
H      7.254744    0.065981    1.145494
H     -6.778836   -1.528507    0.750767
H      6.657031   -1.453414   -0.665156
H      5.493458    1.388155    2.280963
H     -5.399440   -0.622632    2.565758
H     -6.013076   -1.168755   -1.600498
H      4.299393   -1.666021   -1.357283
H      3.133817    1.210523    1.627523
H     -3.346154    0.590183    2.086108
H     -3.955177    0.047279   -2.100753
H      2.048610   -1.295743   -0.947992
H     -2.480755    2.226490   -0.014683
H      1.612704   -1.388904    1.302906
H     -0.609735    1.544336    0.968624
H     -1.033969   -1.605275    3.037116
