48

C     -5.032250    1.929569    0.028546
C      4.713606    1.858017    1.546159
C     -4.379799    0.905241   -0.919160
C     -4.953037   -0.432527   -0.535760
C     -4.391962   -1.502600   -1.411552
C     -2.899843   -1.572542   -1.282829
C     -2.417748   -1.858457    0.111443
C     -0.935580   -1.931463    0.139509
C     -0.336429   -0.625366   -0.306912
C      3.857747    1.110250    0.574091
C      1.166115   -0.840562   -0.209578
C      2.604842    0.584297    1.275788
C      3.000492   -0.067994    2.581100
N      1.826023   -0.173822    0.482986
O      1.722319   -1.883704   -0.996038
O      3.666795    0.497719    3.468877
O      2.615050   -1.393593    2.853399
O      5.339026    0.161231   -1.769683
O      4.508089    2.454441   -3.085831
O      2.927300    0.473884   -2.619434
O      3.511729    1.877354   -0.534323
P      4.063872    1.239748   -1.978107
H     -6.108503    1.666797    0.054366
H     -4.839437    2.958564   -0.289242
H     -4.567749    1.734142    1.027210
H      5.420380    2.518993    0.980403
H      4.167100    2.414810    2.320492
H      5.374960    1.132425    2.060968
H     -4.687515    1.124721   -1.959245
H     -3.283125    0.920358   -0.786895
H     -4.669877   -0.674050    0.528130
H     -6.075082   -0.415437   -0.560292
H     -4.602554   -1.217927   -2.481650
H     -4.865214   -2.493625   -1.243337
H     -2.434108   -0.651984   -1.657619
H     -2.518027   -2.400664   -1.966275
H     -2.824101   -2.805455    0.514544
H     -2.711593   -1.033403    0.822387
H     -0.519029   -2.161420    1.143700
H     -0.548519   -2.709738   -0.580070
H     -0.609555    0.170295    0.380035
H     -0.487785   -0.398113   -1.381520
H      4.429585    0.242808    0.202974
H      2.030061    1.500353    1.631391
H      2.600887   -2.269915   -0.673708
H      2.356273   -1.687667    3.799992
H      5.976714    0.582832   -1.147939
H      3.819456    3.143177   -3.158309
