47

C      1.753629   -3.239073   -0.927081
C      3.765593    3.368522    1.464848
C      6.068164   -1.317094   -0.638609
C     -7.152913    0.093634    0.615711
C     -6.637129   -1.177693    0.740344
C     -6.358819    1.167304    0.274289
C     -5.292587   -1.347501    0.511974
C     -5.023300    0.946129    0.056687
C     -0.059963    0.178308    0.626085
C      2.198124    1.176285    0.770523
C      3.332753   -1.105462   -0.256106
C     -4.449689   -0.298266    0.165644
C      1.377685    0.123034    0.443951
C     -0.852598    0.378327   -0.640897
C      1.956338   -1.016241   -0.069983
C      3.578238    1.086602    0.583740
C      4.165638   -0.043189    0.072733
C     -3.031072   -0.525452   -0.065433
C     -0.391223    1.677562   -1.215926
N     -2.277622    0.430896   -0.377893
O     -2.527483   -1.802697    0.063086
O      0.817191    1.814971   -1.524727
O     -1.234326    2.758174   -1.431417
O      1.138912   -2.080892   -0.401621
O      4.340339    2.176577    0.930859
O      5.539461   -0.119477   -0.107791
H      1.043085   -4.072750   -1.087188
H      2.284888   -2.991500   -1.868341
H      2.565567   -3.541093   -0.201863
H      3.307358    3.192482    2.457871
H      2.973401    3.756771    0.780654
H      4.541278    4.136728    1.544084
H      5.585765   -1.592677   -1.607395
H      7.164418   -1.271926   -0.772042
H      5.783986   -2.147314    0.070269
H     -8.212144    0.302811    0.782316
H     -7.291677   -2.019215    1.013309
H     -6.796929    2.175557    0.181180
H     -4.864542   -2.354162    0.606561
H     -4.395273    1.777626   -0.210582
H     -0.359401    0.925441    1.398176
H     -0.403455   -0.806904    1.052072
H      1.737958    2.066357    1.172553
H      3.801986   -1.980640   -0.653515
H     -0.686054   -0.412288   -1.382947
H     -1.706141   -2.126487   -0.466734
H     -0.817412    3.679896   -1.385257
