41

C     -1.064365   -1.393655   -1.264439
C     -6.054140    0.520505    0.140221
C     -5.691134    0.913683   -1.119586
C      5.032293    1.661556    1.238351
C      1.939564   -1.352097   -1.159497
C     -5.048590    0.347570    1.086866
C     -4.381319    1.138338   -1.467228
C      5.382226    1.227266   -0.018651
C      4.077438    0.971659    1.947740
C      0.984712   -0.679394   -0.236719
C      3.180414   -1.743298   -0.389793
C     -1.408985    0.026022    1.259178
C     -3.748234    0.569101    0.748667
C     -3.383119    0.965425   -0.524077
C      4.759858    0.116748   -0.518565
C     -0.982562    0.666754   -0.039585
N      3.526303   -0.101716    1.375925
N     -0.246521   -0.270079   -0.871644
N      3.812667   -0.569784    0.181408
O      5.061572   -0.296592   -1.660826
O     -2.704813    0.411829    1.651141
O     -2.051827    1.168204   -0.781568
H     -0.946731   -2.272631   -0.633340
H     -2.125124   -1.062898   -1.164530
H     -0.897599   -1.565357   -2.347222
H     -7.063754    0.328743    0.472340
H     -6.466534    1.047632   -1.856758
H      5.490509    2.524847    1.674915
H      1.542364   -2.240675   -1.679072
H      2.287668   -0.632795   -1.958415
H     -5.295977    0.039052    2.091158
H     -4.116449    1.450087   -2.463448
H      6.136446    1.801266   -0.537641
H      3.823081    1.338168    2.930073
H      1.476876    0.242080    0.141918
H      0.740791   -1.301521    0.628420
H      2.935334   -2.428296    0.443759
H      3.903309   -2.260940   -1.056093
H     -0.713620    0.263588    2.081027
H     -1.411243   -1.072036    1.134380
H     -0.290787    1.503640    0.184037
