33

C     -3.472346    1.926881   -0.187034
C     -3.434959   -0.099171   -1.477377
C      1.730499   -2.109491    0.754315
C      4.749420    0.913401    0.370095
C     -0.769622   -1.765549    0.381929
C     -1.481858   -0.587239    1.012642
C     -0.381045    0.496111   -0.920163
C     -2.804446    0.829490   -0.507715
C      0.628850   -1.320899    0.214838
C     -1.476504    0.594288    0.115447
C      0.836955   -0.197972   -0.426897
O      2.798041    2.654781   -0.007506
O      2.501068    1.151128    1.868767
O      2.126258    0.232370   -0.586059
S      2.981894    1.223801    0.456310
H     -3.069102    2.662381    0.524806
H     -4.446419    2.172893   -0.596590
H     -4.523300    0.089592   -1.584600
H     -2.991000   -0.026383   -2.496256
H     -3.344284   -1.161614   -1.180029
H      1.325611   -2.722412    1.611791
H      2.576971   -1.507314    1.133029
H      2.088999   -2.868440    0.007439
H      5.255415    1.604906   -0.302210
H      4.837397   -0.108002   -0.094533
H      5.193197    0.821420    1.372823
H     -0.851843   -2.675698    1.012866
H     -1.150665   -1.971665   -0.658596
H     -2.483288   -0.863579    1.396550
H     -0.888680   -0.348507    1.944363
H     -0.116109    1.517820   -1.319196
H     -0.759340   -0.055574   -1.820967
H     -1.185766    1.498247    0.735308
