41

C      0.764353   -2.445831    1.613903
C      5.122868    2.305083   -1.293609
C      4.304791    3.184206   -0.620245
C     -4.401562    1.841543   -0.956234
C     -1.851061   -1.598591    1.376150
C      4.821239    0.963547   -1.415266
C      3.141566    2.701196   -0.047362
C     -4.750035    1.525697    0.343958
C     -3.636800    0.921652   -1.660894
C     -0.746102   -1.116662    0.460775
C     -3.169423   -1.753468    0.702828
C      1.937894   -1.173225   -0.666035
C      3.631205    0.527256   -0.816070
C      2.785657    1.371313   -0.134459
C     -4.334863    0.340040    0.875651
C      1.582183   -0.518203    0.640668
N     -3.259930   -0.216638   -1.095050
N      0.440943   -1.045091    1.286739
N     -3.604739   -0.495717    0.146673
O     -4.682537    0.102502    2.069331
O      3.289452   -0.835008   -0.918437
O      1.611577    0.876147    0.441486
H      0.457338   -3.089677    0.761287
H      0.333487   -2.760351    2.570754
H      1.862996   -2.555273    1.700762
H      6.041637    2.641001   -1.756391
H      4.579886    4.239835   -0.546021
H     -4.700723    2.762701   -1.429521
H     -1.593749   -2.591062    1.840565
H     -1.978179   -0.899772    2.250613
H      5.443495    0.250273   -1.938254
H      2.494433    3.362222    0.478581
H     -5.356042    2.251450    0.906628
H     -3.323221    1.102878   -2.692089
H     -0.662706   -1.814156   -0.373732
H     -1.052164   -0.090943    0.129610
H     -3.947944   -2.054626    1.451624
H     -3.161029   -2.573583   -0.039416
H      1.757072   -2.246377   -0.687337
H      1.352126   -0.646195   -1.469754
H      2.456610   -0.750092    1.322427
