36

C     -0.985155   -2.308772   -1.361590
C     -2.549692    1.790292   -1.634190
C     -3.134759    2.376639   -0.543559
C     -1.975838    0.517710   -1.532103
C     -3.136479    1.673450    0.641193
C      1.906936   -0.512838    1.578668
C      1.349879   -0.201148   -0.687588
C      3.466236    0.595494    0.120037
C     -1.376912   -1.543115   -0.158291
C      0.991606   -0.682071    0.540953
C      3.134478    0.122044    1.367925
C      2.564429    0.430952   -0.914352
C     -1.961306   -0.203610   -0.372006
C     -2.569416    0.422205    0.731182
C     -0.258695   -1.366020    0.802050
N     -2.593354   -0.288536    1.960072
N      4.046953    0.283910    2.425179
N      2.891424    0.913366   -2.204995
O     -0.435067   -1.874231    1.971264
O      3.738633   -0.173507    3.670331
O      5.128466    0.840078    2.234627
O      4.072457    1.551146   -2.468525
O      2.073744    0.745425   -3.121485
H      0.037972   -2.746995   -1.303225
H     -1.067119   -1.733228   -2.276951
H     -1.646421   -3.210780   -1.523201
H     -2.511390    2.278909   -2.587638
H     -3.592150    3.379884   -0.601620
H     -1.510030    0.094627   -2.436099
H     -3.597032    2.108883    1.540827
H      1.703352   -0.862150    2.571813
H      0.697246   -0.308734   -1.535887
H      4.428051    1.091942   -0.033961
H     -2.147163   -2.187705    0.382375
H     -2.120157    0.181895    2.760299
H     -3.063728   -1.195411    1.998471
