40

C     -5.398428   -0.261645   -2.620654
C     -4.881052    0.620791    2.822539
C      4.148478    1.160203    0.013177
C      4.057190   -1.230650   -0.082221
C     -1.558719   -0.176869   -0.884013
C      5.312314    1.081110   -0.720550
C      5.231630   -1.275595   -0.820408
C     -2.822506   -0.201331   -1.434978
C     -2.542997    0.229982    1.234422
C      1.027599   -0.122039    0.271811
C      3.504476   -0.037361    0.339977
C     -1.413900    0.041709    0.469785
C      5.865644   -0.087945   -1.141584
C      2.247882   -0.044814    1.126331
C     -3.959243   -0.017330   -0.698354
C     -3.795547    0.201695    0.664159
N     -0.142542    0.078398    1.096339
O      7.035864   -0.068843   -1.873041
O      2.261350   -1.001862    2.127879
O     -5.240629   -0.037792   -1.231066
O     -4.948613    0.391121    1.427980
H     -6.476104   -0.293859   -2.872954
H     -4.958996    0.578698   -3.218838
H     -4.941239   -1.232363   -2.879811
H     -4.053643    1.357181    3.034447
H     -5.799980    1.056177    3.214686
H     -4.578246   -0.315165    3.349639
H      3.758340    2.101206    0.317476
H      3.566541   -2.182246    0.164254
H     -0.678814   -0.326801   -1.499182
H      5.792760    2.042294   -0.960028
H      5.669884   -2.211227   -1.154493
H     -2.935573   -0.374707   -2.508142
H     -2.407718    0.401312    2.302944
H      1.110510    0.671048   -0.514116
H      0.901704   -1.097020   -0.232662
H      2.209346    0.951392    1.656108
H     -0.043237    0.241339    2.102848
H      7.478255   -0.930380   -2.204981
H      2.397956   -1.910562    1.815275
