42

C      4.278011    1.468174   -0.925005
C     -1.245108   -2.865400    0.360761
C     -2.634606    3.437438   -0.600751
C      3.283702    1.123048    0.147274
C      2.704966   -2.014801    0.915145
C      1.848008   -1.142643    1.776355
C      3.061467   -1.214539   -0.307595
C     -4.658840   -0.543043   -1.383795
C     -3.623904   -1.443420   -1.348080
C     -4.479195    0.719205   -0.886769
C      1.385026   -0.064868    0.813436
C     -2.182023    0.158966   -0.308712
C     -2.388757   -1.111387   -0.817944
C     -3.238101    1.046877   -0.355610
C     -0.885620    0.497628    0.243719
Cl    -3.854538   -3.057348   -1.982335
Cl    -5.758933    1.926252   -0.895926
N      0.088509   -0.333316    0.284687
N      2.403690    0.054085   -0.206599
O     -0.677534    1.771045    0.753832
O     -1.355065   -2.028741   -0.788990
O     -3.074076    2.323964    0.142249
H      4.614932    0.597889   -1.516538
H      5.176886    1.889576   -0.439154
H      3.892350    2.278718   -1.587668
H     -1.656022   -2.352057    1.249078
H     -0.182216   -3.099027    0.558301
H     -1.752477   -3.846507    0.171329
H     -1.885383    3.091221   -1.327167
H     -3.487922    3.931163   -1.139084
H     -2.158405    4.177240    0.064178
H      2.663319    2.021180    0.336517
H      3.792062    0.842225    1.090537
H      2.210014   -2.981566    0.665441
H      3.608129   -2.287543    1.519276
H      2.375454   -0.688420    2.630272
H      0.933989   -1.682862    2.135079
H      4.162371   -1.136311   -0.334633
H      2.774052   -1.801634   -1.218117
H     -5.608413   -0.827199   -1.799224
H      1.345202    0.876173    1.410619
H      0.185002    2.290564    0.569817
