40

C     -5.016222   -2.370060   -0.966633
C     -4.272504    3.110539   -0.391588
C      4.122865   -0.076049    0.823577
C      3.233694   -0.557564   -1.304334
C     -1.554777   -0.866267    0.753211
C      5.402051   -0.038712    0.308703
C      4.529330   -0.519799   -1.826122
C     -2.711305   -1.377213    0.178269
C     -2.314939    1.357158    0.476628
C      1.133385    1.022077    0.867616
C      3.022091   -0.333480    0.037274
C     -1.339723    0.457358    0.908083
C      5.626013   -0.261322   -1.031810
C      1.626301   -0.367087    0.637969
C     -3.668321   -0.513314   -0.246354
C     -3.451963    0.850076   -0.088397
N     -0.169532    1.021028    1.465307
O      6.910985   -0.229889   -1.582191
O      1.704455   -1.105210    1.817661
O     -4.834370   -0.977688   -0.824029
O     -4.461463    1.722519   -0.537395
H     -5.984114   -2.625022   -1.419167
H     -4.874324   -2.820691    0.033070
H     -4.231431   -2.737887   -1.681614
H     -4.006729    3.310872    0.676303
H     -5.182096    3.655555   -0.684423
H     -3.445448    3.496724   -1.017029
H      3.927246    0.099335    1.890453
H      2.381441   -0.762853   -1.945705
H     -0.852865   -1.630052    1.080715
H      6.258865    0.163933    0.933119
H      4.701840   -0.695945   -2.884160
H     -2.851003   -2.465725    0.068007
H     -2.167710    2.429277    0.589884
H      1.092144    1.612904   -0.090750
H      1.851044    1.562273    1.533120
H      0.988305   -0.886184   -0.074834
H     -0.233902    1.502211    2.430819
H      7.473425   -1.087348   -1.625515
H      1.639266   -2.068477    1.690683
