36

C      3.632289    0.113112   -1.381493
C      4.146210    1.099265   -0.585782
C     -3.164679    0.656078   -0.236462
C     -2.009902    1.604879   -0.537453
C     -2.901626   -0.017263    1.078899
C      2.468728   -0.546290   -1.051166
C      3.495256    1.450210    0.574630
C     -1.488937   -1.857600    0.114281
C     -0.008208   -1.880815   -0.293345
C     -0.752903    0.798595   -0.552682
C     -1.594644   -0.747146    1.094198
C      1.810887   -0.214028    0.091055
C      2.344680    0.794405    0.896211
C      0.565253   -0.827186    0.569695
Br     1.465964    1.315123    2.526305
N     -0.513486    0.132966    0.710214
Cl     0.683109    0.000000    0.000000
H      4.145101   -0.157447   -2.287944
H      5.069166    1.617521   -0.854318
H     -4.072422    1.306677   -0.095610
H     -3.298421   -0.060706   -1.046340
H     -2.180474    1.960005   -1.596280
H     -2.002348    2.446675    0.154875
H     -3.710713   -0.689423    1.368918
H     -2.808094    0.811444    1.841547
H      2.072445   -1.315074   -1.675676
H      3.913411    2.244006    1.210466
H     -1.702384   -2.816256    0.629545
H     -2.144807   -1.771723   -0.759957
H      0.438230   -2.887842   -0.073686
H      0.102229   -1.730269   -1.379425
H     -0.805098    0.101669   -1.410278
H      0.130840    1.448673   -0.736347
H     -1.378290   -1.124213    2.102480
H      0.736745   -1.258025    1.590924
H     -0.683109    0.000000    0.000000
