63

C      6.549665   -0.450630   -1.218581
C     -6.709459    2.911648    0.155163
C     -0.136857   -5.504252   -0.999809
C     -5.470519    3.543151    0.053601
C     -6.879238    1.600002   -0.246035
C     -0.203910   -4.464812   -1.879034
C      0.574177   -5.369576    0.154548
C     -4.414176    2.832753   -0.456140
C     -5.814719    0.912149   -0.750219
C      0.457690   -3.267317   -1.589969
C      1.226498   -4.175459    0.429915
C      5.055394    0.316818    0.648044
C      4.714336    1.195150   -1.512052
C      4.008077    1.085520    1.107573
C      3.659108    1.966242   -1.036459
C     -0.984569    1.167485    2.552071
C     -3.465552    0.721904   -1.413017
C      1.897041   -1.871889   -0.065380
C     -2.273977    0.819540    0.478241
C      0.114548   -0.389118   -0.217804
C      5.425304    0.361782   -0.678191
C     -4.575565    1.512471   -0.862403
C      1.183841   -3.100882   -0.431850
C     -1.505514    0.131332    1.575766
C      3.281025    1.927410    0.292845
C     -0.081351   -0.217687    1.264674
C      0.331007    1.128255    1.815909
O      1.828420    4.132442    0.065516
O      2.318185    3.328795    2.293460
O     -2.788569   -0.034161   -0.459973
O      1.391373   -0.708921   -0.576988
O      0.506233    2.080647    0.839682
S      1.959607    2.883242    0.924337
H      6.310531   -0.878358   -2.214097
H      6.803736   -1.251873   -0.520066
H      7.470030    0.172785   -1.354016
H     -7.575644    3.416904    0.546965
H     -0.639615   -6.467064   -1.180802
H     -5.401151    4.559560    0.380328
H     -7.825936    1.077295   -0.182049
H     -0.769793   -4.588888   -2.785343
H      0.618524   -6.211610    0.849031
H     -3.449617    3.325447   -0.534849
H     -5.941963   -0.121353   -1.068002
H      0.400374   -2.459018   -2.291477
H      1.780098   -4.095931    1.347237
H      5.612514   -0.337152    1.304798
H      5.010122    1.226905   -2.557079
H      3.709445    1.052421    2.166370
H      3.108053    2.616099   -1.697218
H     -0.909556    0.720172    3.560480
H     -1.539222    2.102570    2.527519
H     -3.798879    0.009425   -2.213361
H     -2.769567    1.428096   -1.942601
H      2.039221   -1.853317    1.034736
H      2.938090   -1.976164   -0.494821
H     -3.156927    1.300813    0.994368
H     -1.735727    1.628637   -0.012406
H     -0.573330   -1.199898   -0.525597
H     -0.198161    0.515155   -0.759252
H     -2.121014   -0.661590    2.036014
H      0.250344   -1.092756    1.847746
H      1.177465    1.038654    2.507577
