42

C      2.415840   -2.254276   -0.819390
C      1.978945    2.702945    0.090901
C     -3.087826   -0.255700    0.899467
C     -2.385258   -1.972977   -0.673695
C      2.481589   -1.191047    1.370275
C      2.519960    0.261427    0.897354
C     -0.148441    2.252053   -1.066493
C     -1.817969    0.382404   -1.072866
C     -0.703601   -0.901339    0.782013
C      1.562105   -1.899668    0.404673
C      0.998795    1.667010   -0.276931
C     -1.469729    1.723339   -0.492514
C      1.276934    0.423444    0.135300
C      0.566019   -0.873490   -0.021833
C     -1.938868   -0.665420   -0.016851
O     -2.499079    2.602740   -0.719071
H      1.775801   -2.174096   -1.728565
H      2.843185   -3.251245   -0.682129
H      3.206151   -1.484090   -0.942696
H      1.765912    3.119329    1.115804
H      1.877563    3.565333   -0.602140
H      3.029787    2.363924    0.008312
H     -3.372904   -1.059372    1.594191
H     -2.851281    0.640096    1.481044
H     -3.936274    0.002499    0.232793
H     -2.847821   -1.751001   -1.653428
H     -3.168246   -2.482559   -0.052096
H     -1.535335   -2.663752   -0.718510
H      2.088151   -1.286195    2.383623
H      3.478036   -1.672045    1.287590
H      3.437421    0.382042    0.323265
H      2.507989    0.873114    1.845357
H     -0.178121    3.350487   -0.909961
H     -0.054875    2.050598   -2.137763
H     -1.096453    0.162746   -1.869468
H     -2.822963    0.427481   -1.587635
H     -0.789733   -1.934644    1.227076
H     -0.654523   -0.217224    1.663249
H      1.118109   -2.807154    0.811048
H     -1.283741    1.639347    0.613719
H      0.323709   -1.077346   -1.097518
H     -2.608954    3.282277   -0.025499
