31

C     -0.559639   -1.871788    1.006080
C      0.069893    0.229945    1.998979
C     -2.157780   -0.825325   -0.698555
C      0.751705   -0.690042   -1.497822
C     -0.295808    0.413466   -1.582168
C      1.219745   -0.500989   -0.049555
C      2.151930    0.607776    0.042126
C     -1.763368    1.353481    0.184865
C     -0.071679   -0.418028    0.670521
C     -1.047500    0.166459   -0.279960
O      1.930794    1.665108    0.650718
O     -1.762971    1.686355    1.380293
O     -2.470488    2.143853   -0.709450
O      4.249170    1.573971   -0.485316
O      3.418585    0.535000   -0.589533
H     -1.632297   -1.823371    1.219861
H     -0.032710   -2.140686    1.957690
H     -0.271548   -2.539330    0.194755
H      0.910818   -0.327698    2.524292
H      0.311725    1.278647    2.053420
H     -0.812752   -0.008577    2.674408
H     -2.568137   -0.378301   -1.654073
H     -1.697786   -1.762702   -0.990780
H     -2.965206   -0.867252    0.038609
H      0.234476   -1.649425   -1.565729
H      1.564106   -0.551575   -2.213232
H     -0.904401    0.199987   -2.481658
H      0.122277    1.410839   -1.666906
H      1.738186   -1.468280    0.208088
H     -2.575066    3.145201   -0.572027
H      4.915725    1.413280    0.232062
