21

C      3.621178   -0.179046    0.350662
C      2.294850    0.213595   -0.209278
C      1.180132   -0.361833    0.144193
C     -2.050250    1.079004    0.476506
C     -1.259554   -0.272071    0.355584
C     -2.274665   -1.195130   -0.143249
N     -0.089808    0.018762   -0.404920
O     -3.466966   -0.867187   -0.259023
O     -2.008442   -2.541246   -0.535707
S     -0.828508    2.365694    0.802716
H      4.172163    0.637508    0.826900
H      4.214132   -0.545967   -0.552836
H      3.543987   -1.038119    1.059342
H      2.266474    1.018626   -0.893702
H      1.190687   -1.144947    0.896775
H     -2.688387    1.253146   -0.358582
H     -2.672530    0.958359    1.407305
H     -1.023680   -0.599178    1.397810
H     -0.108394    0.513452   -1.295728
H     -2.634324   -2.917109   -1.268357
H     -1.378096    3.603687    0.351311
