29

C      3.913844    1.424800    0.344472
C      2.905902   -0.937519    0.018780
C     -1.560462   -1.623009   -0.976419
C      0.338579    0.063914    0.591542
C      1.545372    0.975185    0.598452
C     -0.592934    0.625216   -0.460238
C     -2.683049   -0.158176    0.623157
C     -3.917056    0.309496    0.592418
C      2.751401    0.507425    0.329919
C     -1.859818   -0.186487   -0.587433
O     -4.747625    0.363310    1.704183
H      4.039792    1.948233   -0.628247
H      4.874298    0.905503    0.563135
H      3.715704    2.205949    1.106613
H      2.586348   -1.502428    0.907573
H      2.289457   -1.259294   -0.843803
H      3.966249   -1.168313   -0.262695
H     -1.091661   -1.616346   -1.972525
H     -1.006486   -2.170725   -0.211349
H     -2.568320   -2.106356   -1.123200
H     -0.082065    0.101918    1.606394
H      0.681275   -0.945745    0.371921
H      1.441897    2.029420    0.824113
H     -0.065737    0.605664   -1.421488
H     -0.830844    1.656116   -0.188665
H     -2.301528   -0.517330    1.563780
H     -4.293368    0.670990   -0.366779
H     -2.430816    0.248371   -1.433227
H     -5.018353   -0.449783    2.209775
