39

C      2.495357    1.649194    1.287892
C      3.504077    0.433369   -0.683472
C     -2.000113    3.222581   -0.287279
C     -1.332261   -3.267398    0.374233
C     -2.175170    0.670918   -0.776946
C      0.094092   -1.927403   -1.079552
C     -2.199530   -0.558840    0.058250
C      1.225202   -0.962497   -1.096677
C     -0.502557    1.573604    0.687216
C      2.315024    0.662041    0.225111
C     -1.537466    1.828190   -0.109811
C     -0.343644   -2.135758    0.336915
C      1.186216   -0.012230    0.040759
C     -1.001493   -0.848520    0.871228
C      0.047364    0.230713    0.941255
H      3.597897    1.730299    1.584449
H      2.259953    2.674678    0.904505
H      1.880283    1.458455    2.152598
H      4.027919    1.398827   -0.744966
H      3.182569    0.059828   -1.675964
H      4.191500   -0.289674   -0.199980
H     -1.418988    3.900487    0.334287
H     -3.077806    3.352709   -0.017315
H     -1.905881    3.571629   -1.342489
H     -0.821829   -4.146629    0.828192
H     -1.626601   -3.578116   -0.658152
H     -2.212898   -3.050288    0.992468
H     -1.772983    0.521058   -1.808865
H     -3.243987    0.995833   -0.966162
H      0.462847   -2.919466   -1.444177
H     -0.746370   -1.617667   -1.745093
H     -2.438762   -1.419785   -0.635572
H     -3.135339   -0.504938    0.695584
H      1.234755   -0.367013   -2.041078
H      2.178138   -1.570906   -1.027570
H     -0.053362    2.426746    1.179945
H      0.534335   -2.322664    0.961585
H     -1.313138   -1.095698    1.901377
H      0.442650    0.234332    1.983269
