62

C      3.354561   -2.032608    1.214195
C     -5.754553    0.768407   -0.343973
C     -1.114699   -3.020561    0.025512
C     -0.455031   -0.122217   -1.139241
C     -2.771364    1.836501   -1.593742
C     -2.937358    2.703127    1.354948
C     -4.243308    2.174521    0.940069
C     -1.764884    1.791774    1.103631
C      1.020355   -1.115400    1.529666
C     -2.751425   -1.724335   -1.147939
C      2.695200   -0.086129   -0.037311
C     -0.188367   -0.386523    1.296366
C     -3.519731   -0.512608   -1.406008
C      4.061305   -0.187847   -0.612502
C      2.303370   -0.962516    0.852936
C     -4.422791    1.249938    0.021158
C     -1.882948   -1.763164    0.058146
C     -2.229377    0.535647    0.486344
C     -1.094076   -0.468159    0.154214
C     -3.199557    0.710089   -0.639439
O      6.832724    0.752857    1.811807
O      9.186077   -0.076800    0.725168
O      8.869098    2.396866    1.471678
O      6.175313    0.666454   -2.812120
O      6.832102   -0.781680   -0.780835
O      4.837854    0.924911   -0.379385
O      7.514753    1.708925   -0.641175
P      8.156127    1.231853    0.846667
P      6.352079    0.610696   -1.113313
H      2.899455   -2.623416    2.026310
H      4.247476   -1.562333    1.649087
H      3.506114   -2.662519    0.340648
H     -6.005998   -0.230681    0.118259
H     -6.574364    1.435243    0.065012
H     -5.955415    0.753926   -1.435015
H     -0.150184   -2.960732   -0.529775
H     -1.045352   -3.553481    0.996061
H     -1.713333   -3.757213   -0.597151
H     -0.086162    0.918253   -1.118599
H     -1.149644   -0.272465   -2.015255
H      0.399236   -0.778434   -1.386878
H     -3.606125    2.574308   -1.715934
H     -1.932254    2.417416   -1.222642
H     -2.645736    1.447887   -2.645134
H     -2.754134    3.661175    0.783141
H     -3.021602    3.040585    2.408728
H     -5.122486    2.579102    1.427539
H     -0.923629    2.304581    0.604036
H     -1.388510    1.551824    2.145783
H      1.325352   -0.986582    2.652909
H      0.866668   -2.258900    1.510781
H     -3.428829   -2.631801   -1.042524
H     -2.116350   -2.043803   -2.029759
H      2.013467    0.690566   -0.283622
H      0.169080    0.725879    1.231141
H     -0.815776   -0.438982    2.246598
H     -4.616091   -0.755758   -1.262451
H     -3.479899   -0.274806   -2.504259
H      4.590344   -1.073027   -0.267320
H      4.008073   -0.293606   -1.734844
H     -2.535365   -1.789579    0.961589
H     -2.819476    0.025354    1.314270
