42

C     -2.217737   -2.254807    0.373727
C     -1.676219   -0.694489    2.239057
C      3.213127   -1.171903    0.728788
C     -1.143413    3.279731   -1.185205
C      1.361958   -2.113324   -0.578342
C      1.138340    1.223061    1.077616
C      0.679664    2.458469    0.295929
C      0.310050   -1.407325   -1.399024
C     -0.050862    1.064484   -1.650231
C     -2.040621   -0.791114    0.798040
C      1.684995   -1.210548    0.591953
C      1.199404    0.110804    0.111997
C     -1.352221    0.030135   -0.171520
C     -0.515866    2.076167   -0.587921
C     -0.016104   -0.156641   -0.680669
O     -1.370624    1.369310    0.260827
H     -2.998937   -2.675496    1.076279
H     -1.327542   -2.853146    0.531438
H     -2.673697   -2.298634   -0.619270
H     -2.553960   -1.097931    2.828264
H     -1.644474    0.386778    2.505807
H     -0.826509   -1.273671    2.573006
H      3.607021   -1.056224   -0.305835
H      3.589659   -2.106197    1.157142
H      3.444991   -0.271181    1.334842
H     -0.888363    4.177722   -0.607897
H     -2.261910    3.162962   -1.081785
H     -0.971193    3.379893   -2.276956
H      0.925670   -3.074464   -0.241448
H      2.258204   -2.369989   -1.173525
H      0.597653    1.075303    2.001838
H      2.201354    1.471571    1.376299
H      1.484468    2.881268   -0.310900
H      0.303291    3.202139    1.017914
H     -0.533935   -2.050009   -1.667671
H      0.809452   -1.119720   -2.368979
H     -0.844026    0.891450   -2.364382
H      0.937673    1.287134   -2.034114
H     -3.124521   -0.423970    0.780785
H      1.306063   -1.542989    1.551450
H      2.006669    0.418047   -0.635050
H     -2.026969    0.067339   -1.094590
