59

C     -3.503921    1.301284   -0.092938
C     -2.737409    0.306684   -0.894660
C     -3.571418    1.101259    1.357829
C     -1.262882    0.229122   -0.498954
C      6.278049    1.112431    0.178426
C      1.003055    0.697155   -2.359390
C      5.609177    0.856355    1.515374
C      2.249561    0.791970   -1.466555
C      3.812013   -0.294367    0.624184
C      2.827043    0.814770    0.778280
C     -4.941916   -2.350841    0.543987
C     -6.078811   -1.525327    1.072650
C     -4.228342   -0.098726    1.931898
C     -0.640461   -0.788707   -1.359875
C      7.152549   -0.033808   -0.149304
C     -5.656630   -0.253134    1.639118
C     -6.977497    0.070129   -0.190172
N      7.763331   -1.808868   -1.548130
N      0.322415   -0.528773   -2.131852
N     -6.887110   -1.192370   -0.071021
N     -6.270416    0.752151    0.817318
N      6.948061   -0.721923   -1.220584
O     -1.122240   -2.099729   -1.333752
O      8.209110   -0.385826    0.694753
O     -7.692193    0.768515   -1.198597
O      4.839696   -0.279508    1.539750
O      1.831529    0.723407   -0.164928
S     -3.495782   -1.660431    1.371576
H     -4.496305    1.415337   -0.587101
H     -2.932527    2.289600   -0.241872
H     -2.700587    0.706945   -1.963589
H     -3.165403   -0.689391   -0.906533
H     -3.919729    2.046027    1.899697
H     -2.485047    1.048830    1.722087
H     -1.165220   -0.033037    0.559972
H     -0.798051    1.214832   -0.736448
H      5.584854    1.293120   -0.638127
H      6.941801    2.009266    0.261288
H      1.432711    0.634577   -3.412175
H      0.419551    1.612933   -2.261576
H      5.006981    1.731647    1.844844
H      6.428827    0.702880    2.277180
H      2.912676   -0.032096   -1.801842
H      2.736649    1.733749   -1.728265
H      3.254192   -1.254972    0.706623
H      4.288328   -0.223300   -0.381299
H      3.313808    1.825388    0.775877
H      2.323589    0.671547    1.780209
H     -4.858497   -2.351933   -0.558261
H     -5.059943   -3.403320    0.904218
H     -6.696651   -2.149148    1.802409
H     -4.109564   -0.093868    3.067604
H     -6.181331   -0.199400    2.677773
H      7.363769   -2.714112   -1.841800
H      8.795137   -1.695063   -1.492190
H     -6.211481    1.772892    0.949347
H     -0.809625   -2.811405   -1.951466
H      9.061838   -0.759501    0.306572
H     -8.053312    0.198081   -1.960974
