52

C     -2.269039   -0.715412   -2.411308
C     -2.544285   -0.187522    2.096315
C      3.197736    1.677796   -0.542659
C      4.013061    0.118587    1.124498
C      2.043330   -2.059654    1.790187
C     -4.045572    0.298451   -0.956677
C     -4.050609    0.922594    0.434747
C      0.026893    1.867774   -0.357155
C     -1.374963    1.624490   -0.935628
C      3.030015   -0.743131   -1.033005
C      1.958228   -1.768553   -0.705152
C     -0.090447   -1.438997    0.704449
C     -2.728734   -0.487226   -1.001716
C     -2.650626    0.808812    0.961415
C      0.525606    0.447959   -0.369621
C     -0.606965   -0.358541    0.133340
C      1.606647    0.127530    0.615229
C      2.991097    0.308135    0.048064
C      1.397779   -1.409479    0.618898
C     -1.821441    0.416188   -0.220477
H     -1.143114   -0.729661   -2.394653
H     -2.559386   -1.751033   -2.736280
H     -2.601986    0.056191   -3.120262
H     -3.087166    0.172618    2.993258
H     -3.055118   -1.135677    1.795235
H     -1.499453   -0.335257    2.397481
H      2.748644    2.458863    0.098275
H      2.895131    1.747871   -1.603229
H      4.303726    1.875398   -0.521708
H      4.325838   -0.905513    1.301437
H      3.599978    0.604111    2.056207
H      4.926032    0.703212    0.876090
H      1.262257   -2.724502    2.266317
H      2.360179   -1.376789    2.593457
H      2.855566   -2.789139    1.500316
H     -4.914212   -0.352505   -1.040640
H     -4.065417    1.078969   -1.743073
H     -4.380824    1.963349    0.338904
H     -4.772426    0.403137    1.103434
H      0.539020    2.524360   -1.089071
H     -0.008964    2.288256    0.646518
H     -2.023245    2.511141   -0.738878
H     -1.279096    1.488585   -2.033304
H      2.807786   -0.214166   -2.000215
H      4.030443   -1.177775   -1.053951
H      1.224562   -1.863758   -1.530595
H      2.479559   -2.770941   -0.680962
H     -0.691384   -2.231017    1.168604
H     -2.851254   -1.424890   -0.450597
H     -2.359003    1.801399    1.369944
H      0.863157    0.128751   -1.378622
H      1.462457    0.526608    1.616820
