119

C    -11.711231   -0.389172   -1.507495
C    -11.766255    0.935863   -2.184953
C    -12.919457   -0.619569   -0.586696
C    -11.782106    2.120975   -1.262426
C     -8.393573    1.298010    0.154454
C     16.976092   -1.636218   -0.020042
C     -7.279747    1.948659   -0.606589
C     16.109925   -0.399804   -0.169967
C     -5.573211    0.650097    0.306452
C     14.465441    0.603258   -1.420852
C     -4.210896    0.865850    0.981481
C     13.555776    0.475857   -2.617667
C     -3.330231   -1.225625    0.384929
C     11.892147   -0.600284   -1.411105
C     -2.361950   -0.973082   -0.711162
C     11.037005   -1.856131   -1.427180
C     -0.804077    0.494171    0.263894
C      9.447234   -3.119069   -0.493913
C     -1.034449    1.690170   -0.636573
C      8.484661   -3.256887    0.642992
C      0.206291    3.486008    0.386858
C      6.840110   -2.128762   -0.472578
C      1.017648    2.978478    1.532995
C      5.889784   -0.924384   -0.240971
C      2.844838    3.653602    2.795176
C      6.002911    1.306243    0.135335
C      3.617127    2.378997    2.600942
C      5.132542    1.211510    1.348028
C    -14.198482   -4.211156   -0.697688
C    -14.802270   -3.254269    0.278228
C    -12.714508   -1.987458    0.010630
C    -10.571242    2.208608   -0.423033
C    -13.770775   -2.438916    0.948559
C    -15.582530   -1.197832    0.322038
N     17.465780    0.026040    3.002369
N     -9.631743    1.377317   -0.555828
N     17.842873   -1.495315    1.124907
N    -15.722125   -2.327685   -0.269324
N    -14.565938   -1.263404    1.308529
N     17.523334   -0.799480    2.093981
O    -10.467002    3.218355    0.521505
O    -16.321486   -0.029119    0.053757
O     -6.072129    1.902814    0.028924
O     15.266048   -0.515855   -1.269173
O     -3.606399   -0.298659    1.309546
O     12.729545   -0.609713   -2.501627
O     -1.081860   -0.690112   -0.372343
O     10.162519   -1.925635   -0.356749
O     -0.817006    2.847273   -0.096117
O      7.601330   -2.209485    0.666942
O      2.010107    3.983476    1.756990
O      6.726808    0.161804   -0.059389
O      4.434913    2.441255    1.465847
S    -12.770951   -3.233753   -1.306026
H    -11.734140   -1.219650   -2.262651
H    -10.819978   -0.585496   -0.898671
H    -12.619318    0.994293   -2.892261
H    -10.846557    1.020700   -2.834950
H    -12.913914    0.183752    0.147082
H    -13.793727   -0.649973   -1.255632
H    -12.698456    2.043837   -0.629603
H    -11.903170    3.053809   -1.886933
H     -8.528485    1.732722    1.160396
H     -8.117701    0.211958    0.289190
H     17.608018   -1.799767   -0.914710
H     16.309110   -2.498169    0.186883
H     -7.546660    3.024842   -0.739194
H     -7.225534    1.522728   -1.650560
H     15.572542   -0.155932    0.745762
H     16.819821    0.438041   -0.411352
H     -6.267644    0.177246    1.062289
H     -5.429118    0.003205   -0.559007
H     15.163724    1.460985   -1.580079
H     13.936826    0.786012   -0.473209
H     -4.512028    1.346377    1.978897
H     -3.665627    1.636260    0.468538
H     14.211894    0.284886   -3.505203
H     12.973293    1.408153   -2.790323
H     -4.284008   -1.678169   -0.074226
H     -2.937685   -2.144146    0.951919
H     11.207153    0.270560   -1.370661
H     12.488233   -0.622864   -0.456621
H     -2.719754   -0.218168   -1.450464
H     -2.331110   -1.932433   -1.321826
H     10.421437   -1.837102   -2.353612
H     11.663091   -2.772511   -1.409982
H      0.275784    0.475260    0.520466
H     -1.338518    0.654957    1.217163
H      8.903285   -3.122113   -1.445951
H     10.219639   -3.952495   -0.472066
H     -2.035634    1.660256   -1.141616
H     -0.323758    1.492080   -1.534852
H      9.050562   -3.278318    1.614579
H      7.929845   -4.224439    0.582362
H      0.959301    3.767979   -0.445788
H     -0.148762    4.557723    0.658355
H      7.400591   -1.848428   -1.392282
H      6.234961   -3.031992   -0.647811
H      1.612499    2.091289    1.175040
H      0.500186    2.814549    2.467234
H      5.354653   -1.206066    0.694728
H      5.200983   -0.832257   -1.096431
H      3.581485    4.485732    2.897244
H      2.307772    3.606868    3.776527
H      6.649834    2.216949    0.157453
H      5.346041    1.431950   -0.776515
H      4.316448    2.252868    3.462986
H      2.998170    1.477017    2.520430
H      4.337899    0.424587    1.192652
H      5.703074    0.975296    2.260600
H    -14.881949   -4.349277   -1.543081
H    -13.867986   -5.135848   -0.204791
H    -15.289726   -3.883086    1.067921
H    -11.729267   -2.015506    0.547068
H    -13.339642   -2.910974    1.862015
H     16.839547    0.849205    2.854173
H    -14.439472   -0.613274    2.093728
H     -9.988795    3.118052    1.394857
H    -17.238746   -0.082388   -0.415469
