52

C      2.811803    0.933455   -1.650026
C      2.203247   -0.593715    2.524554
C     -3.987668    0.492763   -1.162703
C     -3.288262   -1.563025    0.035545
C     -1.824927    2.688381   -0.991867
C      3.944796   -1.068030   -0.679612
C      4.012166   -0.667368    0.795381
C     -0.151644   -1.857019   -0.466706
C      1.228280   -1.956830    0.155903
C     -3.104950    0.587157    1.192916
C     -1.943058    1.563727    1.257390
C      0.149153    1.575639   -0.129379
C      2.639277   -0.485559   -1.166917
C      2.659105   -0.151245    1.161706
C     -0.594990   -0.540077    0.136102
C      0.594066    0.333111   -0.001372
C     -1.635250    0.194677   -0.631825
C     -3.040996   -0.092188   -0.156690
C     -1.340750    1.617849   -0.091811
C      1.759779   -0.588283    0.055980
H      3.733077    0.943570   -2.281229
H      2.951297    1.579852   -0.765709
H      1.951552    1.247582   -2.273561
H      1.136102   -0.803011    2.595721
H      2.436036    0.198120    3.286447
H      2.839729   -1.468039    2.815055
H     -3.469684    0.844105   -2.093734
H     -4.559613    1.356681   -0.771613
H     -4.660365   -0.327005   -1.512640
H     -2.793943   -1.899687    0.977849
H     -3.037419   -2.178994   -0.835376
H     -4.388219   -1.686381    0.203003
H     -2.860242    3.047711   -0.747184
H     -1.180728    3.598888   -0.805982
H     -1.706260    2.467068   -2.059258
H      4.761157   -0.624952   -1.262488
H      3.879682   -2.168579   -0.797905
H      4.823749    0.086185    0.954633
H      4.218191   -1.602877    1.359996
H     -0.775642   -2.686720   -0.058089
H     -0.143470   -1.834095   -1.553887
H      1.851250   -2.722066   -0.374547
H      1.059875   -2.313059    1.202813
H     -2.911454   -0.173352    1.977099
H     -4.064751    1.055811    1.407707
H     -1.210114    1.303864    2.040408
H     -2.354140    2.568032    1.522832
H      0.777616    2.452746   -0.246501
H      2.250328   -1.083788   -2.009158
H      2.694359    0.957615    1.158925
H     -0.855558   -0.675567    1.207602
H     -1.481574    0.116924   -1.702213
