59

C     -2.759610    0.008556    0.864399
C     -1.539948   -0.018172   -0.076580
C     -3.699482    1.026990    0.311276
C     -0.529439   -1.006940    0.384847
C      7.018280    0.125298    0.714985
C      0.628177    0.663546   -2.274895
C      5.549716    0.437111    0.362665
C      1.258198    1.998359   -1.849643
C      4.171814    0.482163   -1.528019
C      3.646074    1.865389   -1.313270
C     -7.611447    1.211052    0.387897
C     -7.179037    0.152149    1.373501
C     -4.956406    1.161683    1.142611
C      0.662326   -1.054772   -0.483275
C      7.250924   -1.268462    0.296572
C     -5.721586   -0.099142    1.231634
C     -6.889794   -1.699518    0.155143
N      7.797393   -1.928275    2.500525
N      0.957565   -0.363351   -1.442560
N     -7.753915   -1.086026    0.891355
N     -5.688691   -0.944087    0.082987
N      7.601785   -2.153448    1.149270
O      1.584657   -2.092372   -0.093487
O      7.088376   -1.617982   -1.024245
O     -7.175618   -2.933784   -0.451435
O      5.445323    0.268330   -0.984000
O      2.508771    2.163823   -1.791549
S     -6.137327    2.296308    0.360594
H     -2.392246    0.293955    1.866765
H     -3.167694   -0.999802    0.931630
H     -1.879929   -0.351989   -1.089954
H     -1.152165    1.003349   -0.173311
H     -3.176025    2.024978    0.381106
H     -3.914683    0.865058   -0.744119
H     -0.229246   -0.848118    1.452045
H     -0.939819   -2.061586    0.381069
H      7.175820    0.250074    1.804176
H      7.677163    0.798830    0.122744
H      0.963909    0.454499   -3.344834
H     -0.460272    0.913282   -2.433325
H      5.279085    1.437129    0.757388
H      4.927163   -0.293665    0.890226
H      0.712616    2.311131   -0.872606
H      0.782468    2.806953   -2.551035
H      3.499468   -0.260410   -1.052122
H      4.248550    0.284090   -2.612101
H      3.612896    1.992947   -0.160884
H      4.432628    2.628241   -1.663951
H     -7.805236    0.786390   -0.624497
H     -8.447718    1.824125    0.764731
H     -7.497392    0.386910    2.408779
H     -4.745114    1.537285    2.145930
H     -5.399021   -0.648626    2.147181
H      8.713880   -1.465048    2.768786
H      7.126210   -2.176268    3.239572
H     -4.975233   -1.013915   -0.646822
H      2.348525   -2.336293   -0.721606
H      7.276022   -2.570772   -1.347345
H     -8.121690   -3.167163   -0.729496
