63

C     -3.936004   -0.897154   -0.587815
C     -3.532637    0.185781   -1.564904
C     -4.134293   -0.379408    0.796880
C     -2.230635    0.848678   -1.161058
C      0.538440   -1.327871    0.123600
C      8.191206   -0.794007    0.340665
C      1.660613   -0.820519    0.970071
C      8.150822   -0.522504   -1.136211
C      2.737737    0.084795   -0.811044
C      6.021838    0.476460   -1.596515
C      3.380208    1.382112   -1.310367
C      5.373170    0.781625   -0.297496
C     -7.388830    1.227442    2.437376
C     -7.636772    0.970197    0.979176
C     -5.208342    0.668698    0.855496
C     -1.159680   -0.154161   -1.118548
C     -6.531013    0.164446    0.401730
C     -8.298076   -1.173014    0.866387
N     10.408034    0.223243    2.825625
N     -0.528501   -0.367293   -0.025651
N      9.586916   -0.875700    0.806920
N     -8.748632    0.039469    0.925677
N     -6.872416   -1.156227    0.874227
N      9.954664   -0.148114    1.740995
O     -0.824066   -0.874265   -2.250519
O     -9.143503   -2.296232    0.805360
O      2.215069    0.316903    0.440794
O      6.979282   -0.424746   -1.711448
O      4.371639    1.765064   -0.453324
S     -5.559080    1.138982    2.575020
H     -4.817117   -1.407737   -1.005743
H     -3.106062   -1.631647   -0.571601
H     -4.289421    0.984291   -1.652763
H     -3.378773   -0.240761   -2.576066
H     -4.401682   -1.204828    1.460016
H     -3.178355    0.066855    1.139805
H     -2.391568    1.369308   -0.217711
H     -2.035236    1.629392   -1.948612
H      0.141618   -2.247119    0.671107
H      0.884937   -1.626418   -0.877687
H      7.622750   -0.133427    0.972537
H      7.802531   -1.839823    0.506861
H      1.348233   -0.652306    2.030749
H      2.426074   -1.648430    1.060419
H      8.723895   -1.375449   -1.663831
H      8.848253    0.363049   -1.333655
H      3.448897   -0.756976   -0.809021
H      1.955065   -0.174900   -1.574080
H      6.310630    1.492678   -2.031907
H      5.154007    0.092053   -2.264876
H      2.592377    2.198003   -1.260608
H      3.655534    1.323258   -2.363284
H      6.134866    1.320361    0.340544
H      5.021053   -0.091078    0.277873
H     -7.724122    2.268725    2.661830
H     -7.875208    0.524202    3.109187
H     -7.853590    1.903833    0.419364
H     -4.966500    1.576769    0.281259
H     -6.634433    0.223265   -0.705872
H      9.767663    0.251007    3.640836
H     -6.277509   -1.945356    1.164099
H     -0.621675   -1.887085   -2.200737
H    -10.124287   -2.227492    0.580466
