119

C    -11.707091   -0.694086    0.907633
C    -10.887246   -1.700746    0.205438
C    -12.300264    0.361733    0.046736
C     -9.682129   -1.262524   -0.527311
C     -8.223278    1.328366   -0.971732
C     17.841082   -0.774562   -1.699444
C     -7.366322    2.287879   -1.795872
C     17.160619    0.014445   -0.610944
C     -5.919600    0.659705   -2.508566
C     15.009763   -0.731685   -1.083362
C     -4.804739    1.006810   -1.581854
C     13.771011   -1.354158   -0.501833
C     -4.624741   -1.063658   -0.586937
C     12.891377    0.706911    0.098845
C     -3.743068   -2.212645   -0.166934
C     12.332137    1.391139    1.353580
C     -2.192840   -2.150532   -1.911829
C     10.197793    0.559799    0.944135
C     -1.051564   -1.586218   -1.064074
C      9.637327    1.903197    0.585567
C      0.644029   -2.434429    0.328338
C      8.231382    1.878643    2.383791
C      0.390520   -1.558913    1.506329
C      6.995021    1.632024    1.513494
C      0.914880    0.469501    0.499927
C      4.943578    0.616417    1.640028
C      2.185254    0.691780    1.329173
C      4.169246    1.803341    1.203739
C    -15.720580    2.137808    0.189180
C    -15.481968    1.575558    1.574945
C    -13.153048    1.340193    0.847906
C     -9.863561   -0.323224   -1.637023
C    -14.285723    0.689286    1.536226
C    -16.178194   -0.541577    1.362338
N     18.442344   -3.977730   -2.814736
N     -9.233454    0.783890   -1.818124
N     18.206439   -2.097496   -1.247380
N    -16.552004    0.616753    1.780410
N    -14.833377   -0.463148    0.844113
N     18.238630   -3.086996   -1.970300
O    -10.821443   -0.667857   -2.603411
O    -16.960564   -1.706385    1.403429
O     -6.745870    1.697781   -2.865026
O     16.002650   -0.555048   -0.139447
O     -3.987093   -0.040901   -1.231735
O     13.256177   -0.564656    0.491832
O     -3.089645   -2.856321   -1.167153
O     11.247224    0.674771    1.814245
O     -0.435121   -2.648424   -0.484359
O      9.188034    2.568884    1.713169
O     -0.000442   -0.295097    1.176657
O      6.116275    0.930096    2.303038
O      3.018668    1.459832    0.547819
S    -13.994393    2.409922   -0.370820
H    -12.506414   -1.189050    1.539942
H    -11.046699   -0.212399    1.694459
H    -10.523417   -2.431860    1.001834
H    -11.488420   -2.369267   -0.466937
H    -12.919210   -0.108043   -0.745476
H    -11.551211    0.999231   -0.457885
H     -8.863219   -0.940091    0.165230
H     -9.243757   -2.199868   -1.001028
H     -7.651389    0.540143   -0.494301
H     -8.668769    1.968152   -0.151404
H     18.806967   -0.277434   -1.988522
H     17.168875   -0.823341   -2.569128
H     -6.648582    2.840484   -1.172936
H     -8.039797    3.089874   -2.233450
H     16.988398    1.054805   -0.989983
H     17.856471    0.110467    0.240926
H     -6.555062   -0.111913   -2.042556
H     -5.448066    0.297497   -3.453504
H     14.739150    0.201828   -1.631770
H     15.400966   -1.474513   -1.831044
H     -5.203582    1.535514   -0.661506
H     -4.151064    1.787323   -2.073137
H     14.042096   -2.335836   -0.041583
H     13.036145   -1.549946   -1.312190
H     -5.456255   -1.524988   -1.163739
H     -5.131507   -0.610709    0.310835
H     13.809950    1.294287   -0.203455
H     12.201053    0.760143   -0.751695
H     -3.079282   -1.835455    0.644225
H     -4.412791   -2.973801    0.325909
H     12.156160    2.462837    1.193177
H     13.120593    1.327647    2.149271
H     -2.577486   -1.351802   -2.541911
H     -1.681266   -2.890619   -2.591676
H     10.471677    0.040305   -0.003418
H      9.446289   -0.115892    1.423907
H     -1.523113   -0.852677   -0.402419
H     -0.389353   -1.051111   -1.788968
H      8.865629    1.796612   -0.202565
H     10.462261    2.487059    0.107161
H      1.469654   -2.046786   -0.329783
H      0.948568   -3.461030    0.719057
H      7.865628    2.559405    3.212617
H      8.558958    0.945289    2.884577
H      1.224692   -1.593814    2.242111
H     -0.471497   -2.035067    2.066162
H      6.599001    2.614121    1.200809
H      7.224993    1.021004    0.620508
H      1.259835   -0.049127   -0.405943
H      0.552059    1.453459    0.214870
H      5.143705   -0.057707    0.767564
H      4.335482    0.056967    2.411693
H      1.978742    1.233765    2.267034
H      2.684519   -0.294658    1.497125
H      3.880031    2.400033    2.117914
H      4.758716    2.482093    0.530971
H    -16.237491    3.109363    0.232533
H    -16.236384    1.407492   -0.450678
H    -15.452976    2.363686    2.348570
H    -12.518599    1.906649    1.529442
H    -14.056497    0.394615    2.580312
H     19.051816   -3.795072   -3.654736
H    -14.462398   -1.118565    0.155378
H    -11.238322    0.048411   -3.198140
H    -17.867308   -1.755567    1.817526
