56

C     -4.123684    0.358308    1.709187
C     -2.882293    1.044460    1.269696
C     -5.374741    0.858423    1.130226
C     -1.596986    0.484834    1.902413
C      1.019746   -0.218380    0.037708
C      7.305864    0.203910   -0.006111
C      1.949596    0.213561   -1.143711
C      6.381679   -0.299023    1.077183
C      3.816203    0.492510    0.205606
C      4.580356   -0.699078   -0.328103
C     -3.923138    0.504783   -2.373965
C     -4.839076   -0.632489   -2.136507
C     -5.652726    0.815419   -0.298497
C     -0.436832    1.280733    1.341498
C     -5.711053   -0.461299   -1.001388
C     -4.481415   -2.435706   -0.847402
N      9.617174   -0.432936   -2.355279
N      0.459769    0.810899    0.645939
N      7.990434   -0.969856   -0.567581
N     -4.149178   -1.868721   -1.934392
N     -5.441180   -1.636659   -0.190310
N      8.931601   -0.739459   -1.361476
O     -0.451192    2.641776    1.677298
O     -3.947464   -3.647020   -0.431563
O      2.950807    1.027675   -0.701136
O      5.433460   -1.188818    0.630171
S     -4.547721    1.842330   -1.323223
H     -3.949225   -0.736607    1.620131
H     -4.205337    0.521709    2.828719
H     -2.709573    0.990284    0.186068
H     -2.852544    2.125724    1.552767
H     -6.227934    0.328979    1.651645
H     -5.509561    1.928565    1.468563
H     -1.481538   -0.585797    1.746318
H     -1.642509    0.769154    2.975926
H      1.695938   -0.862119    0.686131
H      0.328340   -0.964644   -0.492622
H      8.098929    0.868316    0.347778
H      6.747252    0.714358   -0.825365
H      1.286262    0.786762   -1.858409
H      2.302581   -0.722246   -1.586869
H      5.980031    0.518211    1.708652
H      7.052482   -0.896985    1.776627
H      4.591154    1.271468    0.443343
H      3.336827    0.213946    1.170108
H      3.879123   -1.531317   -0.590709
H      5.106988   -0.391323   -1.273007
H     -3.909344    0.862385   -3.420322
H     -2.885179    0.244212   -2.069012
H     -5.415048   -0.772748   -3.104965
H     -6.651813    1.349339   -0.417770
H     -6.783898   -0.650498   -1.348966
H     10.284101    0.351091   -2.265677
H     -5.890509   -1.856096    0.734003
H      0.353011    3.200316    1.364930
H     -3.807017   -4.424615   -1.095217
