39

C      6.249958    0.716847    0.192942
C     -5.439813    1.843070    0.220473
C      4.893634    0.105709    0.235116
C     -3.440418   -2.220492   -0.991053
C      3.834263    0.910731    0.139495
C     -2.030451   -2.150149   -0.870877
C     -4.175369   -1.122782   -0.678618
C     -0.046630   -0.777496   -0.297767
C      0.807223   -1.414935    0.408208
C     -1.556648    1.354899    0.345073
C     -1.482537   -0.984837   -0.452781
C     -2.264852    0.129413   -0.132883
C      2.412325    0.430292    0.164336
C      2.255957   -1.022885    0.388470
C     -3.608990    0.082374   -0.238115
O     -1.900958    1.557457    1.741216
O      1.811555    1.174678    1.178838
O      2.813194   -1.804500   -0.605787
O     -4.382240    1.108296    0.054969
H      6.297434    1.472179   -0.598704
H      6.412011    1.163446    1.199825
H      7.015493   -0.058033   -0.069780
H     -5.988527    1.572427    1.186883
H     -5.255380    2.962418    0.344245
H     -6.304801    1.813276   -0.514198
H      4.703731   -0.931380    0.369747
H     -3.863286   -3.162285   -1.351376
H      3.975655    1.957852    0.019149
H     -1.468540   -3.032499   -1.111290
H     -5.253073   -1.229125   -0.795064
H      0.315196    0.047509   -0.942939
H      0.496587   -2.234130    1.098822
H     -0.563128    1.556267    0.062290
H     -2.260075    2.233720   -0.083598
H      2.010748    0.701832   -0.826179
H      2.730426   -1.352957    1.347565
H     -1.826095    0.586291    2.062232
H      1.812232    0.658066    2.031252
H      2.264190   -2.640563   -0.672775
