117

C    -12.235802    0.552895    0.828494
C    -11.924001   -0.442414    1.896840
C    -13.632743    0.240680    0.310202
C    -10.586709   -0.283128    2.557256
C     -8.505688   -2.463632    2.520321
C     17.815076    2.558446    3.842095
C     -7.043969   -2.453385    2.971329
C     16.439749    2.766770    4.435858
C     -6.296816   -3.777078    1.261152
C     15.349142    2.738004    2.407821
C     -5.362064   -3.863468    0.096474
C     14.229376    2.122862    1.576569
C     -3.661616   -2.528154    0.904631
C     13.599661    0.044333    0.724975
C     -4.006450   -1.424795   -0.093898
C     12.181377    0.087314    1.174689
C     -2.088209   -1.605796   -1.464384
C     11.240243   -0.304275   -0.907727
C     -1.548800   -0.217017   -1.175801
C     10.298043   -1.173327   -1.697771
C      0.629393   -0.854000   -0.574171
C      8.322398   -2.086497   -2.157764
C      2.055990   -0.532741   -1.079174
C      8.449968   -1.710425   -3.598963
C      3.250960   -0.688077   -3.109180
C      6.518802   -0.511620   -3.760893
C      3.654101    0.767236   -3.289787
C      5.975726    0.898595   -3.982024
C    -16.378187    2.674600   -1.045677
C    -15.060859    3.420809   -1.057359
C    -14.039899    1.209500   -0.765742
C     -9.498717   -0.431430    1.589005
C    -14.055285    2.605575   -0.294218
C    -14.928318    4.202100    1.039666
N     -8.654952   -1.366584    1.622918
N    -15.246879    4.547925   -0.166686
N    -14.508172    2.834918    1.046024
O     18.150519    1.217337    3.705787
O     -9.369279    0.507013    0.560567
O    -15.007860    5.085172    2.119935
O     -6.209321   -2.587999    1.900300
O     15.419765    2.212554    3.691377
O     -4.066914   -3.720814    0.403959
O     14.479517    0.782175    1.495487
O     -3.423012   -1.631579   -1.289708
O     11.306020   -0.661859    0.399243
O     -0.206165   -0.104970   -1.351791
O      8.987696   -1.179640   -1.293931
O      2.124735   -0.897638   -2.393272
O      7.922346   -0.466004   -3.852685
O      4.712241    1.030025   -3.992228
S    -15.783584    0.948681   -1.228137
H    -12.101523    1.585878    1.139584
H    -11.541156    0.375808   -0.040003
H    -12.692487   -0.396631    2.705317
H    -11.968760   -1.491534    1.524531
H    -13.576667   -0.771240   -0.162741
H    -14.350165    0.199079    1.125070
H    -10.536076   -1.029232    3.375560
H    -10.527921    0.717782    3.083589
H     -9.162175   -2.398005    3.435507
H     -8.718395   -3.432818    2.061193
H     17.999433    3.160995    2.928548
H     18.530682    2.990802    4.601115
H     -6.826363   -1.561424    3.605469
H     -6.884828   -3.360294    3.639999
H     16.307082    3.860315    4.561268
H     16.455484    2.237401    5.421133
H     -7.331264   -4.062155    0.907485
H     -6.071491   -4.580177    2.022411
H     16.329104    2.589458    1.926126
H     15.137045    3.837832    2.514953
H     -5.558218   -4.881160   -0.415611
H     -5.649116   -3.124186   -0.715599
H     14.346943    2.586591    0.554144
H     13.240040    2.415289    1.943949
H     -2.520572   -2.527394    0.908556
H     -4.008690   -2.280141    1.933693
H     14.016208   -1.007716    0.726817
H     13.699939    0.336327   -0.366433
H     -3.710992   -0.442986    0.385706
H     -5.093069   -1.346952   -0.228650
H     11.808205    1.106853    1.237245
H     12.161183   -0.349887    2.214266
H     -1.872605   -1.877580   -2.544214
H     -1.598612   -2.366083   -0.826872
H     12.253301   -0.494635   -1.381458
H     10.922173    0.744700   -1.091359
H     -2.051260    0.477020   -1.877094
H     -1.872063    0.123801   -0.149076
H     10.267278   -0.789133   -2.776133
H     10.632151   -2.220149   -1.782053
H      0.435627   -1.922873   -0.556028
H      0.598078   -0.473806    0.466364
H      8.866736   -3.075806   -2.048805
H      7.292313   -2.244430   -1.847721
H      2.808480   -1.032679   -0.431427
H      2.238558    0.555206   -0.988771
H      9.435936   -1.912619   -4.060994
H      7.780829   -2.472582   -4.165872
H      4.044333   -1.328740   -2.712165
H      3.026963   -1.054218   -4.165252
H      6.253518   -0.803440   -2.724224
H      6.144927   -1.165258   -4.549872
H      3.673380    1.190921   -2.218456
H      2.767929    1.340024   -3.714269
H      6.424293    1.193484   -4.988879
H      6.537762    1.586381   -3.252845
H    -16.983020    2.965097   -1.931707
H    -16.918712    2.829450   -0.099341
H    -14.727166    3.702969   -2.075360
H    -13.407985    1.130968   -1.655682
H    -13.085123    3.121835   -0.414187
H    -14.547055    2.212915    1.857707
H     18.432280    0.997918    2.773616
H     -8.985013    0.243811   -0.334257
H    -15.772222    5.773881    2.166913
