44

C      4.705188    0.734459   -0.259074
C      1.666573    3.054248    0.709616
C     -4.037997    0.176919   -0.284209
C     -3.949477   -1.067379   -1.135716
C     -0.908152   -2.308994    0.521362
C     -2.466399    2.135204   -0.640697
C      1.516739   -2.761705    0.513556
C      2.076165   -0.096549   -0.010513
C     -2.698382    0.839903   -0.349949
C      0.476282   -1.834616    0.375661
C      0.775451   -0.514233    0.116142
C     -2.000877   -1.387124    0.238361
C      2.810710   -2.359181    0.392107
C     -1.178675    2.594187   -0.669140
C      3.090626   -1.038223    0.132348
C     -1.630093   -0.032908   -0.081140
C     -0.332269    0.446102   -0.118173
C     -0.071186    1.751949   -0.402876
N     -2.891675   -1.965762   -0.783711
O      3.851328   -3.276933    0.529356
O     -0.899300    3.921722   -0.963925
O      4.399265   -0.604262    0.004699
O      1.168739    2.323257   -0.446475
Cl     0.690216    0.000000    0.000000
H      4.352267    0.981864   -1.279064
H      5.791723    0.929790   -0.226201
H      4.214969    1.391644    0.508194
H      2.674301    3.401047    0.401336
H      1.782546    2.396537    1.570565
H      1.032764    3.928805    0.843258
H     -4.212024   -0.113867    0.759279
H     -4.831607    0.802611   -0.690277
H     -3.805476   -0.754303   -2.186995
H     -4.907210   -1.654445   -1.078957
H     -1.032042   -3.274125   -0.111707
H     -0.995759   -2.733918    1.573385
H     -3.305783    2.787736   -0.846761
H      1.226189   -3.796209    0.718630
H      2.396571    0.863635   -0.249842
H     -2.621972   -1.310777    1.207188
H     -3.216159   -2.878692   -0.398075
H      3.658705   -4.232181    0.716848
H     -1.674590    4.534766   -1.155826
H     -0.690216    0.000000    0.000000
