53

C      3.238286   -2.416704    1.032037
C     -0.608671   -3.635993    0.641555
C      3.403395   -0.962401    1.300148
C      2.354034    4.849294    0.051118
C      3.122471    3.940431    0.787143
C     -3.497085   -1.453304   -0.042993
C      1.211415    4.382520   -0.541285
C      2.727955    2.629313    0.900114
C     -1.428831    2.671610   -1.732177
C     -2.365975   -1.288107    0.910957
C     -3.412371   -0.389868   -1.113680
C     -2.268404    1.456376   -1.982059
C     -0.016327   -0.875340    1.392358
C     -0.643426   -2.503006   -0.317543
C      0.820611    3.073801   -0.426637
C     -0.259184    2.316486   -0.899146
C      1.576314    2.149598    0.305585
C      1.285134   -0.363733    0.816780
C     -0.130448    1.023858   -0.461159
C     -1.058377   -0.080168   -0.738793
C     -1.006206   -1.171879    0.294218
N     -2.364579    0.564112   -0.842019
N      0.972495    0.951128    0.255278
O     -1.490755   -2.848582   -1.383773
O      2.292925   -0.293182    1.748206
H      4.003230   -2.711312    0.253448
H      2.279036   -2.743321    0.640858
H      3.459336   -3.057076    1.920495
H      0.196863   -3.657868    1.368231
H     -0.480978   -4.570179    0.017651
H     -1.557947   -3.803043    1.186094
H      4.287916   -0.844255    1.964139
H      3.711201   -0.480930    0.331147
H      2.683566    5.888389   -0.027766
H      4.028086    4.334414    1.250032
H     -3.601388   -2.419293   -0.528623
H     -4.436415   -1.319631    0.562441
H      0.603429    5.057151   -1.111339
H      3.343107    1.957997    1.473796
H     -1.034797    3.062518   -2.692440
H     -2.061367    3.452085   -1.260163
H     -2.396266   -2.035734    1.746302
H     -2.545225   -0.305379    1.442725
H     -3.277613   -0.822844   -2.124526
H     -4.368054    0.172548   -1.114330
H     -1.747890    0.866787   -2.788796
H     -3.289805    1.714828   -2.326609
H      0.210626   -1.736177    2.013303
H     -0.398254   -0.043058    2.044246
H      0.385268   -2.459900   -0.788854
H      1.640134   -0.954197   -0.052070
H     -0.826846   -0.482663   -1.746123
H     -1.263348   -3.786117   -1.607502
