44

C     -3.692435   -1.964730   -0.903737
C      5.052967   -0.356522    0.529097
C      4.643156   -1.541823    1.137344
C     -1.698509    0.982656    1.784298
C      4.165311    0.505206   -0.068766
C      3.297088   -1.831857    1.122630
C      1.368559    2.031669   -1.281810
C     -2.614954    0.199850    0.897669
C     -1.237938   -1.731195    0.574963
C     -1.002324    2.049678    1.026070
C      0.024478    2.599813   -1.000386
C      0.011596   -2.009472    0.843600
C     -2.587530   -1.025161   -1.305569
C      2.832739    0.169248   -0.056071
C      1.684156    0.781163   -0.549237
C      2.370646   -1.007860    0.540767
C      0.605876   -0.009838   -0.250118
C     -0.723860    0.381425   -0.689092
C     -1.767227   -0.551950   -0.137553
N     -0.935506    1.743872   -0.370346
N      1.011671   -1.087707    0.407702
O     -3.071825    0.081416   -1.997948
H     -4.138711   -1.671109    0.053257
H     -4.489105   -1.874463   -1.679906
H     -3.329753   -3.003086   -0.935631
H      6.093247   -0.130932    0.539665
H      5.379206   -2.210722    1.607591
H     -0.944686    0.263707    2.179921
H     -2.275002    1.408259    2.636435
H      4.443270    1.412518   -0.539046
H      2.933398   -2.756038    1.591091
H      1.392608    1.731164   -2.372968
H      2.188061    2.777875   -1.193338
H     -3.129482   -0.558894    1.522429
H     -3.403691    0.805789    0.412436
H     -1.973655   -2.482109    0.932358
H      0.051705    2.120910    1.420104
H     -1.491893    3.058394    1.171603
H      0.197145    3.535950   -0.398444
H     -0.421639    2.986493   -1.955828
H      0.321158   -2.881911    1.367183
H     -1.891931   -1.558277   -1.983616
H     -0.726326    0.321840   -1.823265
H     -2.520059    0.296762   -2.805539
