51

C      5.414644    2.581529    0.938281
C      4.469947    2.097697    1.831400
C      5.788865    1.826215   -0.153642
C     -3.263559   -0.060769   -1.482950
C     -3.512415    1.215136   -1.714467
C      3.879973    0.864964    1.663716
C      5.189584    0.572742   -0.324948
C     -3.797361   -0.732865   -0.317589
C     -4.321252    2.125926   -0.887109
C     -1.408168   -1.555434    2.388284
C     -1.145927   -2.702454    1.434097
C      3.640862   -1.233957    0.354559
C     -0.881786    0.241027    0.734910
C      4.254609    0.093964    0.558887
C     -1.940921   -0.500357    1.417372
C     -2.914744   -1.332176    0.679225
C      2.367208   -1.187610   -0.466018
C     -2.163048   -2.542488    0.330378
C      0.095749   -0.478963   -0.075392
C     -5.466091    2.636159   -1.709167
C      2.567336   -0.644973   -1.805745
N      1.336561   -0.497709    0.281400
O     -2.233803   -3.329737   -0.594656
O     -0.234864   -1.149961   -1.216702
O     -5.595748    2.270266   -2.885152
O     -6.397401    3.518906   -1.182613
O      3.402912   -1.158674   -2.579145
O      1.837521    0.442669   -2.238338
H      5.868853    3.556703    1.087755
H      4.153984    2.677307    2.708295
H      6.530106    2.176118   -0.877507
H     -2.641162   -0.549061   -2.245399
H     -3.078654    1.682772   -2.624696
H      3.147851    0.495080    2.359726
H      5.459280   -0.042327   -1.163202
H     -4.405531   -1.618988   -0.745904
H     -4.607274   -0.162707    0.205730
H     -4.753724    1.735662    0.020269
H     -3.694199    3.036985   -0.605801
H     -2.255226   -1.826437    3.045578
H     -0.569984   -1.238780    2.984153
H     -1.357795   -3.671297    1.947589
H     -0.124950   -2.751009    1.062745
H      3.355277   -1.690580    1.341850
H      4.344401   -1.949244   -0.117795
H     -0.343188    0.866373    1.538186
H     -1.381244    1.078290    0.151009
H     -2.566276    0.244653    2.034143
H     -3.621356   -1.716126    1.544915
H      2.029114   -2.240853   -0.568379
H      1.543012    0.528390   -3.223658
