42

C      5.017980    0.054490   -1.786688
C     -4.754450    1.209883   -0.293182
C      4.444147    0.972429   -0.687280
C      4.439558    0.241431    0.570341
C      3.357785    0.002717    1.247655
C      2.027512    0.440492    0.824793
C     -0.840887    0.147542    1.390158
C     -0.238338   -0.562286    2.582013
C     -0.297969    0.203664   -1.075667
C     -4.063768    0.167750   -1.146910
C     -0.223576   -0.529306    0.220581
C      1.189601   -0.817162    0.656208
C      0.937800   -1.308433    2.057164
C     -1.696685    0.432221   -1.477210
C     -4.774097   -1.122829   -0.922677
N     -2.689548   -0.021981   -0.806401
O      1.610089   -2.162064    2.602477
O     -1.970290    1.165970   -2.626195
O     -4.196697   -2.155074   -0.504864
O     -6.130500   -1.159022   -1.194593
H      5.722641   -0.665947   -1.372195
H      5.476673    0.651981   -2.597367
H      4.139244   -0.542226   -2.159684
H     -4.734422    2.154312   -0.866022
H     -4.279352    1.279502    0.699652
H     -5.813126    0.896484   -0.119279
H      5.234651    1.775554   -0.590086
H      3.518597    1.345429   -1.088675
H      5.437789   -0.114963    0.936600
H      3.427433   -0.551416    2.182187
H      1.610980    1.025284    1.714952
H      1.947235    1.123947   -0.003824
H     -1.927617   -0.007594    1.386030
H     -0.660929    1.241723    1.423576
H      0.030333    0.141990    3.395825
H     -0.971896   -1.323254    2.916726
H      0.289888   -0.315407   -1.880043
H      0.198427    1.217036   -1.006061
H     -4.117861    0.443610   -2.219789
H     -0.718329   -1.530886    0.129358
H      1.725148   -1.537728    0.038298
H     -6.683174   -1.907863   -0.753684
