53

C      5.833224    2.352768    1.517259
C     -3.455380    1.781161    0.833122
C      6.222932    1.465349    0.522405
C      4.501132    2.695988    1.607794
C     -2.266686    1.242394    0.804013
C     -4.606037    1.192020    0.134781
C      5.294701    0.942143   -0.352556
C      3.601228    2.160531    0.724984
C     -1.937001    0.002271    0.083299
C     -2.294066   -2.770878   -0.016026
C     -3.355167   -2.307379    0.942788
C     -5.075344    2.273590   -0.863184
C      2.915975    0.739954   -1.183239
C      0.197946   -2.404621   -0.147564
C      3.958158    1.269467   -0.282334
C     -1.032384   -2.288473    0.636229
C     -1.422002   -0.960902    1.168651
C      2.241556   -0.501049   -0.649495
C     -2.690615   -1.359654    1.898895
C      0.301415   -1.717429   -1.415112
C      3.241360   -1.550267   -0.459119
N      1.231075   -0.858278   -1.629143
O     -5.434483    3.422414   -0.156061
O     -3.077330   -1.000943    2.991785
O     -0.596798   -1.964925   -2.434622
O      4.129287   -1.420516    0.416806
O      3.261923   -2.716184   -1.217174
H      6.566571    2.752730    2.192042
H     -3.662314    2.714716    1.387421
H      7.274395    1.213818    0.474787
H      4.186928    3.384563    2.376646
H     -1.447438    1.750872    1.359001
H     -5.486186    1.070100    0.836122
H     -4.447265    0.311762   -0.464502
H      5.627381    0.255371   -1.122603
H      2.556363    2.455284    0.827407
H     -2.743108   -0.523298   -0.399309
H     -1.100308    0.269735   -0.605405
H     -2.434939   -2.433434   -1.046024
H     -2.288122   -3.878305   -0.015887
H     -3.707771   -3.166111    1.586033
H     -4.245066   -1.887376    0.471666
H     -5.959881    1.919595   -1.427641
H     -4.222214    2.550064   -1.528006
H      2.124967    1.523674   -1.254584
H      3.400392    0.559471   -2.167841
H      0.374155   -3.501693   -0.343257
H      1.058046   -2.133857    0.534923
H     -0.903068   -2.950470    1.546661
H     -0.698772   -0.488946    1.830577
H      1.775980   -0.237370    0.312687
H     -5.202437    4.218322   -0.698766
H      3.915087   -3.467767   -0.959281
