52

C      4.479275   -2.928357   -0.565945
C      4.727549   -1.470292   -0.968689
C      5.338534   -0.683956    0.098317
C     -4.813467   -2.422501   -0.343374
C      4.775937    0.376317    0.612354
C     -3.551881   -2.431378   -0.892027
C     -5.593185   -1.312698   -0.503247
C     -3.091147   -1.339881   -1.586862
C     -5.114571   -0.216222   -1.208333
C      3.471762    0.891577    0.176307
C      0.495084    1.157688    2.375100
C      1.006613   -0.239433    2.765079
C     -3.303490    0.933806   -2.533095
C      0.505860    0.605723   -0.023614
C     -3.861890   -0.188294   -1.769366
C      1.153141    1.413061    1.045021
C      2.549755    0.897510    1.368362
C     -2.544918    1.947335   -1.735472
C      2.255972   -0.432032    1.933810
C     -0.928007    0.894502   -0.217755
C     -3.423111    2.572139   -0.718288
N     -1.300623    1.514241   -1.241071
O      2.844697   -1.488924    1.802407
O     -1.842391    0.479788    0.728177
O     -4.573844    3.029242   -1.041258
O     -3.098339    2.716908    0.618724
H      5.070032   -3.199538    0.328396
H      4.731934   -3.633920   -1.383855
H      3.385810   -3.041674   -0.400011
H      3.887213   -1.052257   -1.503961
H      5.542574   -1.572059   -1.765267
H      6.338821   -1.031620    0.473113
H     -5.172055   -3.289077    0.205264
H      5.285516    0.936908    1.420717
H     -2.960046   -3.330198   -0.745320
H     -6.602507   -1.296838   -0.068248
H     -2.096367   -1.351035   -2.017603
H     -5.774983    0.629703   -1.309138
H      3.660139    1.990811   -0.072319
H      3.031869    0.463246   -0.712445
H      0.952457    1.917614    3.080776
H     -0.584642    1.199163    2.404202
H      1.348691   -0.176083    3.812026
H      0.260286   -1.010623    2.570403
H     -4.192068    1.442430   -3.016022
H     -2.714908    0.578921   -3.424844
H      1.041505    0.711322   -1.002323
H      0.676794   -0.474756    0.244018
H      1.174604    2.487878    0.779581
H      2.924846    1.533803    2.187753
H     -2.300705    2.801912   -2.467944
H     -3.478124    3.490097    1.174732
