43

C      5.008828   -2.131055   -0.773687
C      3.578688   -1.626580   -0.608070
C      3.287923   -0.495419   -1.501693
C      2.927153    0.705958   -1.130172
C      2.765237    1.080211    0.257214
C      0.415658   -0.354697    1.611146
C      0.826550    0.550252    2.734714
C     -4.159734   -1.557400   -0.778332
C     -4.104515   -1.113335   -2.208414
C     -0.969187    1.284337    0.280155
C      0.314041    0.527276    0.418894
C      1.391399    1.544491    0.639525
C      1.288087    1.814258    2.097220
C     -2.184850    0.501844    0.175008
C     -5.360761    0.669538   -0.849548
C     -4.127077   -0.098468   -1.125045
N     -2.907035    0.599280   -0.866984
O      1.520484    2.842890    2.709392
O     -2.579813   -0.344879    1.172993
O     -6.496815    0.173080   -1.034036
O     -5.280566    1.963784   -0.378158
H      5.077258   -3.228768   -0.613057
H      5.422750   -1.890311   -1.757607
H      5.675561   -1.670773    0.004942
H      2.945940   -2.529334   -0.883216
H      3.419622   -1.477764    0.451338
H      3.386664   -0.689860   -2.591051
H      2.742000    1.452134   -1.894558
H      3.080556    0.350186    1.018723
H      3.474366    1.954882    0.434499
H     -0.443357   -0.984008    1.834351
H      1.270691   -1.071422    1.431147
H      0.036601    0.712506    3.491623
H      1.707540    0.136097    3.289342
H     -3.268028   -2.034003   -0.323055
H     -5.120150   -2.031156   -0.451407
H     -3.156143   -1.274118   -2.737139
H     -5.012309   -1.180045   -2.847859
H     -1.092423    1.966628    1.174198
H     -0.821707    1.998048   -0.573423
H      0.471328   -0.064306   -0.514065
H      1.140035    2.445166    0.034962
H     -6.090489    2.574856   -0.270714
