43

C      5.579037    0.045913   -0.306078
C      4.714180   -0.449473    0.832517
C      3.687505   -1.399261    0.413331
C      2.377171   -1.276791    0.532558
C      1.805157   -0.075552    1.146944
C      0.014291   -0.450478   -1.701726
C      0.833416    0.711972   -2.208703
C     -3.624434   -1.442311    0.764236
C     -4.785949   -0.969610    1.532759
C     -1.507836    0.817583   -0.317617
C     -0.284113   -0.062686   -0.240790
C      0.881339    0.706696    0.230609
C      1.568914    1.164029   -0.990575
C     -2.036142    1.311768    0.939414
C     -4.774786    0.448109   -0.547949
C     -4.038526   -0.002012    0.652837
N     -3.195784    0.920227    1.358785
O      2.598841    1.822130   -0.989047
O     -1.350662    2.199625    1.732111
O     -5.504728   -0.384497   -1.143702
O     -4.700471    1.736904   -1.047218
H      6.007349    1.048660   -0.079643
H      5.024213    0.123488   -1.255838
H      6.448610   -0.620816   -0.498593
H      4.428605    0.398468    1.428625
H      5.434681   -1.041104    1.483882
H      4.001530   -2.354923   -0.068698
H      1.689540   -2.072112    0.177039
H      2.504276    0.653331    1.558495
H      1.143837   -0.363019    2.017404
H     -0.960965   -0.552712   -2.218327
H      0.520458   -1.408817   -1.794551
H      0.125187    1.515120   -2.490561
H      1.505742    0.432332   -3.035984
H     -2.661645   -1.705189    1.264443
H     -3.845860   -2.142980   -0.078667
H     -5.806496   -1.284344    1.207155
H     -4.724756   -0.844623    2.637479
H     -1.290489    1.739092   -0.945858
H     -2.333468    0.322140   -0.882486
H     -0.491405   -0.985440    0.349693
H      0.562581    1.578019    0.817294
H     -5.537945    2.193143   -1.412203
