51

C      5.194103    3.096304   -0.431748
C     -3.536294    0.966480   -2.076227
C      5.758630    1.847922   -0.352055
C      3.890291    3.194179   -0.828268
C     -2.387208    0.868870   -1.474727
C     -4.562265   -0.056379   -2.014480
C      5.056843    0.711133   -0.656246
C      3.177778    2.064293   -1.135165
C     -1.983586   -0.292639   -0.655168
C     -2.425122   -1.930810    1.602076
C     -3.607249   -0.970460    1.630027
C     -5.783895    0.552568   -1.402750
C      2.941238   -0.389720   -1.390064
C      0.074589   -1.569306    1.543837
C      3.750255    0.802293   -1.053963
C     -1.274641   -0.990030    1.673650
C     -1.687148    0.112445    0.781478
C      2.183268   -0.821645   -0.147444
C     -3.036371    0.381692    1.383034
C      0.396992   -2.275780    0.334563
C      3.065178   -1.168850    0.982582
N      1.336970   -1.960090   -0.439605
O     -5.829406    1.717396   -1.044038
O     -3.495322    1.482558    1.592861
O     -0.352643   -3.385553   -0.041360
O      3.100154   -2.364325    1.433466
O      3.874949   -0.231671    1.592288
H      5.797385    3.947696   -0.179851
H     -3.720295    1.891029   -2.663728
H      6.789252    1.735803   -0.041240
H      3.445666    4.191411   -0.890106
H     -1.624184    1.689141   -1.553275
H     -4.882776   -0.244493   -3.095240
H     -4.328417   -1.031626   -1.631104
H      5.499248   -0.279641   -0.599165
H      2.147617    2.202687   -1.443779
H     -2.650496   -1.157589   -0.715387
H     -1.025218   -0.665397   -1.139955
H     -2.451942   -2.581429    0.716331
H     -2.511376   -2.585380    2.508331
H     -4.079522   -0.968481    2.622850
H     -4.335801   -1.213492    0.821261
H     -6.675392   -0.042466   -1.262022
H      2.202610   -0.084457   -2.143855
H      3.597184   -1.193723   -1.779929
H      0.800413   -0.758654    1.745320
H      0.183997   -2.228175    2.469547
H     -1.320856   -0.553335    2.722630
H     -1.045852    1.001116    0.817731
H      1.578424    0.089082    0.127896
H      4.770244   -0.550504    1.970793
