51

C      5.832350    2.800732    0.359298
C     -6.595880   -0.307548   -0.123298
C     -4.109262   -1.975681    0.266539
C      5.837367    1.299496    0.605829
C     -5.226679    0.259110    0.061366
C      5.505390    0.583506   -0.636881
C      4.484907   -0.209201   -0.795525
C      3.492298   -0.521762    0.240929
C      0.685057   -1.795119    0.539763
C      1.232828   -2.217360   -0.803175
C     -0.087179    0.590693    0.605172
C     -4.133197   -0.656307   -0.426342
C      1.055827   -0.376497    0.760339
C      2.128397   -0.080731   -0.266690
C      1.721808   -0.951343   -1.393075
C     -1.192702    0.355286    1.526304
C     -2.763265   -0.013497   -0.284697
C     -2.725074    1.315174   -0.960601
N     -2.375597    0.087945    1.104016
O      1.786217   -0.661458   -2.564125
O     -1.007784    0.411373    2.900514
O     -3.024209    1.440214   -2.175315
O     -2.359783    2.485113   -0.294327
H      4.999210    3.108191   -0.302803
H      5.790235    3.330996    1.335212
H      6.785958    3.044445   -0.164802
H     -6.787250   -0.717365   -1.120680
H     -6.889279   -1.022360    0.696054
H     -7.323790    0.548228   -0.001443
H     -3.476181   -2.668770   -0.362531
H     -3.577960   -1.946329    1.260641
H     -5.093874   -2.463869    0.339081
H      5.205520    1.008459    1.440051
H      6.889594    1.025146    0.908801
H     -5.188295    1.239988   -0.454512
H     -5.110785    0.495677    1.151411
H      6.177701    0.733094   -1.501246
H      4.349681   -0.687630   -1.786046
H      3.502708   -1.648576    0.363322
H      3.638213   -0.075543    1.221042
H     -0.403191   -1.990129    0.522780
H      1.110377   -2.414799    1.370254
H      0.469531   -2.724124   -1.435080
H      2.056271   -2.942834   -0.612221
H     -0.406907    0.558540   -0.447818
H      0.275630    1.634797    0.777256
H     -4.319758   -0.837084   -1.505058
H      1.523099   -0.183643    1.761533
H      2.162171    0.980148   -0.528446
H     -2.005061   -0.647683   -0.788453
H     -2.515401    3.400893   -0.672246
