51

C      7.404073   -1.588013    0.386836
C     -5.106909   -1.123158    1.136905
C      6.897512   -0.734255   -0.556237
C      6.570805   -2.350205    1.180388
C     -4.026866   -0.382685    1.289320
C     -6.403986   -0.743711    0.588866
C      5.519709   -0.608009   -0.744708
C      5.216037   -2.212621    0.980697
C     -3.980492    1.005327    0.905125
C     -1.139196    2.325882   -0.999526
C     -1.917468    1.682853   -2.149476
C     -6.768266   -1.584548   -0.596154
C      3.218697   -1.248075   -0.127712
C     -0.983643    0.056827   -0.146555
C      4.679663   -1.362673    0.040775
C     -1.552574    1.395754    0.166505
C     -3.042276    1.516597   -0.070121
C      2.640821   -0.239851    0.803025
C     -3.118263    1.054222   -1.468073
C      0.489868    0.137390   -0.253879
C      3.166708    1.133936    0.644604
N      1.188729   -0.259519    0.762521
O     -6.459704   -1.364953   -1.735240
O     -3.949056    0.339047   -1.952205
O      1.140981    0.623021   -1.403624
O      4.389407    1.406799    0.728357
O      2.270239    2.186525    0.389342
H      8.473966   -1.705241    0.553983
H     -5.020799   -2.180497    1.470300
H      7.604243   -0.161707   -1.149581
H      6.998268   -3.020610    1.922334
H     -3.163760   -0.853544    1.735591
H     -6.596682    0.313984    0.422511
H     -7.170625   -1.025280    1.383681
H      5.192996    0.081708   -1.510746
H      4.548895   -2.802597    1.593849
H     -3.785019    1.581965    1.884675
H     -4.994651    1.435410    0.629568
H     -0.092721    2.429559   -1.148153
H     -1.671664    3.306046   -0.807967
H     -2.279082    2.462021   -2.846050
H     -1.342829    0.949710   -2.710223
H     -7.375992   -2.501469   -0.460011
H      3.025132   -1.027439   -1.197320
H      2.717508   -2.216323    0.083778
H     -1.177208   -0.731907    0.614946
H     -1.412138   -0.313769   -1.118307
H     -1.201638    1.819354    1.104423
H     -3.193753    2.656437   -0.155511
H      2.913862   -0.556008    1.842908
H      2.659143    2.998292   -0.075356
