51

C      6.852811    1.836179    0.274076
C     -5.554342    1.719001    1.743299
C     -5.697487    0.674699   -1.035635
C      5.562528    1.333519    0.931347
C     -4.341725    1.522918    0.882008
C      4.428091    1.763810    0.147328
C      3.580000    0.935007   -0.407063
C      3.726835   -0.506056   -0.268895
C      0.562714   -2.151038   -0.601544
C      1.446104   -3.235573   -0.089386
C      0.260360    0.052641    0.383201
C     -4.532982    0.395941   -0.116487
C      1.244721   -0.831344   -0.344917
C      2.486772   -1.096351    0.426857
C      2.657346   -2.555871    0.446490
C     -0.957467    0.261151   -0.441405
C     -3.271453    0.148736   -0.911885
C     -3.453812   -1.020521   -1.809353
N     -2.128566   -0.072994   -0.081881
O      3.636575   -3.160555    0.838285
O     -0.776774    0.861771   -1.680418
O     -4.393435   -1.078938   -2.644633
O     -2.594248   -2.127250   -1.782024
H      7.675257    1.328200    0.832596
H      6.883318    2.926392    0.357070
H      6.826155    1.456243   -0.766876
H     -6.324881    2.364351    1.274438
H     -6.007645    0.722805    1.953691
H     -5.237064    2.120147    2.725429
H     -6.299425   -0.222740   -1.176002
H     -6.284675    1.531891   -0.642103
H     -5.293640    0.989708   -2.032023
H      5.524614    1.908919    1.916702
H      5.674363    0.306031    1.220891
H     -3.474806    1.335837    1.543649
H     -4.150682    2.460418    0.335422
H      4.295910    2.862266    0.027378
H      2.717547    1.316921   -1.004092
H      3.636205   -0.929217   -1.327005
H      4.654294   -0.910290    0.096645
H     -0.417611   -2.227788   -0.080519
H      0.383932   -2.319238   -1.681752
H      0.989132   -3.791527    0.775953
H      1.785237   -3.944225   -0.867694
H      0.737630    1.014655    0.663642
H     -0.072103   -0.421678    1.332359
H     -4.779544   -0.517249    0.462858
H      1.464509   -0.368373   -1.329458
H      2.451568   -0.657780    1.457496
H     -3.089555    1.029606   -1.574014
H     -3.010608   -3.033166   -1.952225
