23

C      2.345342   -0.781313   -1.231721
C     -2.603508   -1.296627    0.585301
C     -3.043304   -0.163192    0.061257
C      1.182534   -0.333770    0.862220
C      0.263830    1.921169   -0.188289
C      1.935250    0.328783   -0.258540
C     -0.274931   -0.279205    0.587544
C     -0.729094    0.847613    0.063611
C     -1.179227   -1.407344    0.876222
C     -2.140675    0.969407   -0.229479
O     -0.713294   -2.465769    1.375169
O     -2.558651    2.039072   -0.724553
O      1.267439    1.306809   -0.936325
H      2.067308   -1.778195   -0.864748
H      3.439095   -0.775650   -1.366831
H      1.837869   -0.643058   -2.211589
H     -3.307510   -2.107494    0.783406
H     -4.085598   -0.042345   -0.167360
H      1.526129   -1.389281    0.965816
H      1.374641    0.232242    1.818792
H     -0.195173    2.747475   -0.719822
H      0.711932    2.273176    0.772012
H      2.879596    0.797494    0.147906
