54

C      5.122995   -0.516540   -0.141551
C     -3.882076    3.057173   -0.965626
C     -2.407316   -2.609715    3.003003
C     -2.571436    2.927103   -0.571424
C     -4.575228    1.907663   -1.317464
C     -2.908525   -3.197739    1.880054
C     -1.754637   -1.399622    2.844858
C     -1.931856    1.684198   -0.518093
C     -3.928430    0.701502   -1.257388
C     -2.773228   -2.619710    0.654582
C     -1.609192   -0.800469    1.608084
C      2.682171    0.563947    1.490365
C      2.545849    2.076157   -0.408629
C      2.282796   -0.788945    0.952799
C      2.003238    1.353026   -1.598750
C     -2.604002    0.550486   -0.861450
C     -2.123675   -1.416811    0.502535
C      3.511911    1.186913    0.387706
C      2.746038   -0.754191   -0.470923
C      1.677320   -0.097156   -1.308364
C     -0.649742   -0.769281   -1.384678
C     -2.001672   -0.821300   -0.830455
N      3.899416    0.122594   -0.513891
O     -0.359070   -1.318977   -2.506852
O     -2.772346   -1.588061   -1.729898
O      0.397624   -0.140047   -0.761492
O     -0.005064    0.368755   -0.000000
H      5.775552    0.267814    0.334241
H      5.657914   -0.815421   -1.065469
H      5.004063   -1.343815    0.573389
H     -4.374964    4.007970   -1.008035
H     -2.486948   -3.025495    3.999932
H     -2.041909    3.824877   -0.300208
H     -5.612471    1.951006   -1.636463
H     -3.426877   -4.142672    1.945955
H     -1.346356   -0.915537    3.741617
H     -0.907740    1.657725   -0.204025
H     -4.473990   -0.194906   -1.533363
H     -3.182615   -3.111673   -0.218420
H     -1.082693    0.140850    1.601598
H      1.741889    1.122204    1.679371
H      3.230181    0.418641    2.421140
H      1.764466    2.449330    0.279916
H      3.129978    2.941496   -0.777871
H      2.792092   -1.611656    1.536405
H      1.202511   -0.998253    1.057530
H      2.783073    1.342537   -2.383758
H      1.066399    1.827428   -1.949944
H      4.377832    1.745738    0.737068
H      2.995985   -1.774393   -0.818898
H      1.666414   -0.649471   -2.284224
H     -2.268713   -2.406523   -1.904540
H     -0.822326   -0.186091   -0.000000
H      0.827390   -0.182664    0.000000
