32

C     -4.044655    1.604763   -0.641027
C     -1.933735    1.392308    0.566509
C      3.008095    1.155525    0.111834
C      4.087565   -0.935005   -0.198538
C     -3.176507    0.652870    0.156967
C      4.145652    0.422723   -0.063040
C     -0.695843    0.601510    0.376886
C      1.811809    0.478356    0.145857
C      2.867714   -1.635690   -0.164897
C      1.727408   -0.909857    0.009494
C     -0.755962   -0.711621    0.246168
C      0.599901    1.266164    0.332904
C      0.420689   -1.554826    0.056459
C     -2.130010   -1.317796    0.302650
O      5.388727    1.038488   -0.107490
O      2.900506   -2.990733   -0.308026
O      0.643454    2.523331    0.459262
O      0.261305   -2.791992   -0.057748
O     -2.133601   -2.621207   -0.147431
O     -2.911200   -0.513070   -0.559418
H     -3.576639    2.613923   -0.740903
H     -4.277980    1.247810   -1.645492
H     -5.010836    1.777266   -0.119885
H     -1.798533    2.333918   -0.014162
H     -1.953445    1.714517    1.638454
H      3.031267    2.231416    0.221192
H      5.005230   -1.510390   -0.337978
H     -3.739055    0.339326    1.062734
H     -2.541142   -1.189254    1.320611
H      5.458269    2.038998   -0.009973
H      2.200610   -3.659667   -0.316341
H     -2.879053   -3.092104    0.299805
