32

C     -4.558435    0.783342    0.580785
C     -2.178997    1.206134   -0.105890
C      2.801009    1.621748    0.086985
C      4.221909   -0.276707    0.297624
C     -3.276910    0.183995    0.073089
C      4.057718    1.074278    0.185981
C     -0.826528    0.574617    0.003917
C      1.673535    0.840978    0.096299
C      3.095683   -1.120929    0.311894
C      1.833836   -0.538116    0.209938
C     -0.665970   -0.730885    0.111880
C      0.334205    1.450036   -0.011186
C      0.648265   -1.355519    0.219439
C     -1.910450   -1.579051    0.121079
O      5.206274    1.871650    0.176337
O      3.299185   -2.466889    0.424931
O      0.298456    2.699940   -0.109218
O      0.682099   -2.605085    0.317367
O     -1.656514   -2.843141    0.599887
O     -2.837035   -0.881158    0.893742
H     -5.316916    0.878683   -0.248927
H     -4.446568    1.787205    1.003787
H     -5.005130    0.071415    1.324318
H     -2.295759    2.009576    0.640076
H     -2.230722    1.663632   -1.115146
H      2.711317    2.701909   -0.000421
H      5.210439   -0.743862    0.378308
H     -3.458238   -0.271974   -0.922390
H     -2.267223   -1.580918   -0.940142
H      5.597855    2.235189    1.017831
H      2.711677   -3.212252    0.455935
H     -1.452069   -3.447844   -0.161319
