38

C     -4.568181    1.875610   -0.654902
C     -1.616059   -1.995893    0.549852
C     -2.886648   -2.329335    0.974620
C     -2.394317    0.067391   -0.259503
C      4.795392    0.436505    0.665134
C      3.139307   -1.070693    1.400416
C      1.648152    1.359313   -1.054417
C     -1.334386   -0.797434   -0.074748
C      4.433756   -0.654403    1.452231
C      2.590400    0.659136   -0.189682
C     -3.942286   -1.462814    0.788137
C      3.896082    1.085790   -0.142924
C      0.210996    0.953545   -0.916509
C      2.218367   -0.408480    0.575292
C     -3.676055   -0.262755    0.166035
C      0.055790   -0.490378   -0.512101
O      5.317625   -1.321629    2.270183
O     -5.232267   -1.793876    1.215888
O      4.349963    2.164051   -0.891699
O     -0.367525    1.068310   -2.202114
O     -4.720092    0.614407   -0.027921
O      0.910148   -0.848089    0.538733
H     -5.427066    2.542246   -0.463041
H     -3.646381    2.340161   -0.227143
H     -4.399241    1.678945   -1.735891
H     -0.793823   -2.681077    0.699977
H     -3.111564   -3.281551    1.470986
H     -2.194018    1.012304   -0.747182
H      5.816664    0.754858    0.714004
H      2.790530   -1.902055    1.977798
H      1.990711    1.209922   -2.120320
H      1.749520    2.464307   -0.868444
H     -0.318198    1.657444   -0.272668
H      0.281844   -1.151732   -1.376657
H      5.866271   -2.115810    1.955256
H     -5.418172   -2.676784    1.671600
H      3.731631    2.688888   -1.511701
H      0.253129    0.611655   -2.836573
