36

C     -1.703099    0.254298   -2.192774
C     -1.178237   -0.811891    1.220029
C     -2.956016    0.233988    0.183707
C     -1.130399    1.485077    0.893031
C      3.493518   -0.899467    1.482649
C      3.038734    0.399900    1.580795
C      2.977354   -1.731180    0.514475
C      2.072123    0.836494    0.701093
C      2.007870   -1.264457   -0.354341
C     -0.867659   -0.059908   -0.963179
C      1.534794    0.030383   -0.278825
C      0.491186    0.521305   -1.219359
N     -1.499299    0.257284    0.252245
O      0.958810    0.088144   -2.494072
Br     0.760650    0.000000    0.000000
H     -2.434601   -0.537693   -2.422373
H     -1.048594    0.346906   -3.084870
H     -2.189513    1.253209   -2.069272
H     -1.153446   -1.797796    0.715097
H     -0.231825   -0.565061    1.739637
H     -1.964514   -0.771905    2.020172
H     -3.299097    0.376165    1.241999
H     -3.335192   -0.762953   -0.113153
H     -3.372531    1.067183   -0.392694
H     -0.657253    2.235171    0.219810
H     -2.056087    1.986686    1.241379
H     -0.536563    1.334144    1.821927
H      4.262570   -1.278657    2.167659
H      3.454428    1.045580    2.349214
H      3.368609   -2.742094    0.480094
H      1.744023    1.857294    0.810835
H      1.642301   -1.972757   -1.095855
H     -0.723653   -1.181997   -1.016265
H      0.517650    1.620501   -1.304202
H      0.773606   -0.851896   -2.634612
H     -0.760650    0.000000    0.000000
