36

C     -2.188606   -0.376290    1.731143
C     -2.569643   -1.251173   -0.768515
C     -1.495457    0.752907   -1.251814
C     -0.331962   -1.345834   -1.240432
C      3.796352    0.665566   -0.544414
C      2.887136    1.611220   -0.915159
C      3.447198   -0.283446    0.401277
C      1.627920    1.608393   -0.340263
C      2.186098   -0.268475    0.962264
C     -0.991567   -0.415478    0.809381
C      1.257040    0.676440    0.601156
C     -0.100917    0.714285    1.187204
N     -1.331613   -0.495740   -0.566068
O      0.131998    0.642527    2.601219
Br     0.766698    0.000000    0.000000
H     -1.816730   -0.156038    2.761925
H     -2.637005   -1.395374    1.786883
H     -2.915166    0.398187    1.481254
H     -2.629733   -2.148422   -0.160741
H     -3.393479   -0.565771   -0.439992
H     -2.739024   -1.484423   -1.826648
H     -1.727940    1.544881   -0.540742
H     -0.657733    0.975159   -1.951686
H     -2.396295    0.691552   -1.936558
H     -0.267451   -2.280591   -0.622144
H     -0.806120   -1.683692   -2.208822
H      0.618711   -0.857446   -1.407300
H      4.810076    0.616781   -0.964895
H      3.176258    2.358327   -1.666133
H      4.202684   -1.028271    0.675391
H      0.920970    2.371446   -0.651558
H      1.931560   -1.003711    1.687667
H     -0.445727   -1.363975    1.073081
H     -0.531263    1.725537    1.061958
H      0.979430    1.050945    2.830340
H     -0.766698    0.000000    0.000000
