36

C     -2.603280   -0.530086    1.063465
C     -2.106654    1.196095   -0.438340
C      4.754923   -0.064448    0.034656
C      2.974772    1.396968    0.654621
C      1.445021   -1.791967   -0.481256
C     -1.658501    0.140126    0.321842
C      4.324406    1.155829    0.509717
C      2.437892   -0.748949   -0.128723
C      3.778171   -1.016005   -0.282861
C     -3.944176   -0.130783    1.022973
C     -3.408897    1.596973   -0.488254
C      0.163828   -1.043680   -0.877062
C      2.009724    0.469240    0.345562
C     -4.366123    0.917744    0.263291
C     -0.267196   -0.292278    0.378515
O      5.284794    2.106751    0.827622
O      4.261830   -2.224138   -0.755129
O     -4.840147   -0.844380    1.789424
O     -3.855541    2.662209   -1.256252
O     -0.805725   -1.887147   -1.353225
O     -5.692917    1.350951    0.192383
O      0.651272    0.775643    0.515548
H     -2.334841   -1.372951    1.689062
H     -1.396653    1.762811   -1.046701
H      5.804046   -0.284690   -0.090263
H      2.669143    2.361531    1.028771
H      1.772729   -2.455421   -1.306996
H      1.199494   -2.341382    0.450257
H      0.490406   -0.274839   -1.607861
H     -0.103877   -0.980169    1.219140
H      5.665052    2.139326    1.771113
H      3.700705   -3.007998   -1.024885
H     -5.820586   -0.701635    1.880607
H     -3.154859    3.157917   -1.805173
H     -0.659170   -2.045665   -2.323862
H     -6.369062    0.848495    0.741590
