40

C     -2.255459    5.174797   -0.660335
C      1.756203   -2.141806    0.343111
C      0.468409   -0.269012    1.058938
C      2.816049   -2.866168    0.436578
C      6.474371   -4.956609    0.341669
C      5.708346   -5.117040    1.460068
C     -5.004152    3.239587    0.431251
C     -4.798788    1.921334   -0.245367
C     -0.508566    0.570960    0.809792
C      4.825108   -3.524057   -0.677131
C     -0.271287   -1.591910   -0.834434
C      0.660221   -1.392278    0.269099
C      4.073782   -3.724322    0.522654
C      6.043181   -4.155712   -0.752742
C      4.446202   -4.441329    1.497905
C     -3.507917    3.316621    0.615287
C     -3.474333    1.785975    0.505882
C     -1.428122    0.388588   -0.273860
C     -2.288861    2.640575   -1.229330
F      6.923865   -4.074632   -1.756108
F      3.618567   -4.674571    2.571725
N     -1.276668   -0.611157   -0.988242
N     -2.705895    3.789138   -0.450349
N     -2.338788    1.511738   -0.365118
O     -1.952540    2.673389   -2.416371
H     -1.162300    5.154525   -0.907966
H     -2.412243    5.734943    0.261887
H     -2.737415    5.611884   -1.563632
H      1.189905   -0.081653    1.882049
H      7.451290   -5.435888    0.295177
H      5.985139   -5.699493    2.289604
H     -5.456585    3.083951    1.451522
H     -5.508862    4.011630   -0.158225
H     -4.647256    1.976128   -1.354751
H     -5.514412    1.094781    0.053214
H     -0.678698    1.466555    1.395498
H      4.444989   -2.970417   -1.484995
H     -0.205772   -2.360708   -1.500920
H     -3.208779    3.695097    1.631278
H     -3.541932    1.246568    1.439317
