49

C      0.408641   -3.504668    0.294915
C     -1.633661   -3.130832   -0.662712
C      2.063082   -0.765224    1.666938
C      2.490167    0.116874    2.615383
C     -1.454294   -0.560278    1.396001
C     -1.064390   -1.965823    1.241092
C     -2.563483    1.170097   -0.004430
C     -1.223141    0.297279   -2.239023
C     -3.021612    3.436713   -2.741776
C      3.363192    3.660799    2.148865
C     -1.666899    0.090172    0.077812
C      1.844635   -0.406634    0.338565
C     -1.010623   -0.327232   -1.048492
C      2.740944    1.456254    2.316587
C     -2.780752    1.803524   -1.204588
C     -2.105384    1.370542   -2.353051
C      2.102572    0.918671    0.064915
C     -0.085347   -1.459286   -0.927556
C      1.355092   -1.048211   -0.863781
C      2.539705    1.847339    1.017668
C      1.940828    1.080132   -1.381826
N     -0.479181   -2.414097    0.027871
O      2.100835    2.201045   -1.975931
O      3.163155    2.562153    3.019735
O     -3.607425    2.888873   -1.561925
O     -2.556500    2.214363   -3.346914
O      2.847048    3.219576    0.930803
O      1.609325   -0.124725   -1.914033
Cl     0.000000    0.000000    0.000000
H      0.240481   -3.981461    1.277929
H      0.272399   -4.359150   -0.438836
H      1.486878   -3.279802    0.220769
H     -1.230307   -3.556334   -1.600508
H     -2.378063   -2.355705   -0.873622
H     -2.010009   -3.881519    0.030039
H      1.906290   -1.772079    1.962989
H      2.666285   -0.150127    3.665133
H     -0.679089   -0.019931    1.986664
H     -2.446822   -0.512226    1.951208
H     -1.986401   -2.599596    1.476666
H     -0.378202   -2.240917    2.086725
H     -3.069853    1.481684    0.898793
H     -0.726359    0.004339   -3.172230
H     -3.814248    3.819967   -3.384578
H     -2.196299    4.114135   -2.531254
H      2.749465    4.545000    2.469532
H      4.404489    4.005767    2.096170
H     -0.158488   -1.975293   -1.945826
H      2.031322   -1.914147   -1.106876
