40

C     -5.808481   -1.247852    2.342524
C      8.166892    0.334031   -0.661686
C      7.403238    1.476501   -0.648643
C      7.543835   -0.882328   -0.594836
C      6.032036    1.381020   -0.569167
C      6.176279   -0.951872   -0.516213
C      3.938614    0.061620   -0.416790
C      2.740305   -0.038115   -0.335773
C      0.472827    0.281791   -1.221077
C     -5.011635    1.355248    0.247767
C     -3.995275    1.328890   -0.874903
C     -0.899671    0.143008   -1.058564
C      0.777175   -0.725017    0.924104
C      5.368194    0.176697   -0.500382
C      1.313210   -0.158955   -0.215367
C     -5.107492   -0.134742    0.158560
C     -3.848053   -0.155948   -0.661383
C     -1.415473   -0.424918    0.086652
C     -3.454502   -1.151225    1.368866
N     -0.562140   -0.840705    1.041063
N     -4.828057   -0.871324    1.349661
N     -2.822540   -0.561613    0.241136
O     -2.882785   -1.840886    2.283806
H     -6.749219   -0.660269    2.205237
H     -6.079402   -2.322137    2.291697
H     -5.465765   -1.043338    3.379312
H      9.252140    0.443528   -0.725770
H      7.855208    2.457629   -0.699638
H      8.114825   -1.776446   -0.603768
H      5.413596    2.280285   -0.557644
H      5.644257   -1.907152   -0.461391
H      0.875381    0.727102   -2.120704
H     -4.555105    1.729869    1.186067
H     -5.931326    1.907880   -0.069043
H     -4.451089    1.523723   -1.868245
H     -3.099023    1.935887   -0.638847
H     -1.613472    0.468325   -1.809934
H      1.431835   -1.070786    1.712328
H     -6.017018   -0.504006   -0.361096
H     -3.922324   -0.743398   -1.608837
