40

C     -5.752884   -1.344523   -1.003625
C      7.269758   -0.183277   -0.738574
C      6.124129    0.165878    0.029650
C      7.665698   -1.512594   -1.001247
C      3.934072   -0.500595    0.223156
C      2.839162   -0.229292    0.098058
C      0.851213    1.257899    0.374526
C     -5.035873    2.137615   -0.021155
C     -3.934443    2.454102    0.986817
C     -0.510443    1.380710    0.536571
C      5.598697   -2.204154    0.429438
C      0.628474   -1.069091   -0.376753
C      5.600649   -0.927591    0.387667
C      1.357810    0.134632   -0.047512
C      6.836272   -2.563549   -0.387769
C     -4.986479    0.709082    0.403327
C     -3.623242    0.956164    1.027289
C     -1.283180    0.255945    0.214477
C     -3.453965   -0.151627   -1.033734
F      7.116757   -3.830016   -0.474244
N     -0.732572   -0.878556   -0.212531
N     -4.809678   -0.306434   -0.594687
N     -2.722098    0.397504    0.141765
O     -2.933048   -0.412690   -2.136093
H     -6.260563   -1.715886   -0.120308
H     -6.295131   -1.088501   -1.900340
H     -5.028422   -2.234490   -1.263577
H      7.867200    0.624850   -1.158903
H      5.862136    1.216216    0.204804
H      8.476668   -1.800519   -1.599892
H      1.477581    2.107453    0.709200
H     -5.972138    2.718226    0.184572
H     -4.585085    2.306342   -1.035123
H     -3.123172    3.079025    0.620847
H     -4.367057    2.756542    2.014174
H     -0.910557    2.250198    0.969249
H      5.091182   -3.035048    0.804306
H      1.083315   -1.917811   -0.685160
H     -5.767235    0.439502    1.229879
H     -3.593508    0.558358    2.091181
