54

C      0.026395   -0.357214    1.774649
C     -6.932469    0.460157    1.676399
C      7.088416    1.533544    0.596451
C     -5.852194    1.295405    1.893848
C     -6.772663   -0.681974    0.912542
C      5.852876    2.070522    0.965690
C      7.203680    0.303245   -0.010007
C     -0.247625   -1.242007   -2.113593
C     -4.622799    0.973498    1.341036
C     -5.539531   -0.979416    0.374076
C      4.753993    1.301938    0.690105
C      6.061702   -0.421623   -0.260604
C     -0.719034    0.186358   -1.805047
C      1.206049   -1.284087   -1.622406
C     -2.132590    0.577482    0.228628
C      2.267495   -0.098548    0.230452
C     -4.424362   -0.157003    0.573529
C      4.834166    0.064582    0.083321
C     -0.762110    0.358065   -0.318100
C      1.168253   -1.062919   -0.139840
C     -3.104512   -0.510098   -0.023555
C      3.586354   -0.662296   -0.158955
N     -0.104589   -0.722686    0.391566
O     -3.292095   -0.880429   -1.324380
O      3.685635   -1.793116   -0.715687
Cl     0.691513    0.000000    0.000000
H      0.839732   -1.008148    2.210087
H     -0.877168   -0.618392    2.384799
H      0.311629    0.688981    1.941183
H     -7.906227    0.684766    2.095167
H      7.996089    2.096249    0.789116
H     -5.957778    2.181251    2.481071
H     -7.628014   -1.344123    0.739836
H      5.802995    3.043309    1.441573
H      8.195878   -0.049908   -0.268697
H     -0.269585   -1.425029   -3.190031
H     -0.787635   -1.992594   -1.537670
H     -3.818334    1.647241    1.534503
H     -5.410595   -1.874847   -0.225825
H      3.780237    1.691923    0.965006
H      6.137724   -1.377521   -0.730605
H      0.075277    0.840032   -2.275278
H     -1.642775    0.420831   -2.335961
H      1.683369   -2.245775   -1.906628
H      1.698212   -0.419518   -2.092715
H     -2.512919    1.544991   -0.151836
H     -2.040025    0.689568    1.339945
H      2.308471    0.091984    1.322435
H      2.169617    0.884417   -0.267914
H     -0.168077    1.280252   -0.077573
H      1.463093   -2.048597    0.328557
H     -2.772326   -1.425336    0.536423
H     -3.899304   -0.227387   -1.793821
H     -0.691513    0.000000    0.000000
