48

C     -2.954720   -0.667435    1.528612
C     -4.989668    0.152584    0.730967
C      6.396021   -0.339883   -1.074756
C      5.579267    0.719212   -0.737525
C      5.895077   -1.611625   -0.872820
C      4.312864    0.531963   -0.219306
C      4.612098   -1.804984   -0.347825
C     -1.525312    1.379446    0.278678
C     -1.893479   -0.677849   -1.125926
C      2.353260   -0.282234    1.925407
C      3.814493   -0.737962   -0.018419
C     -0.957637    0.344190   -0.613364
C      2.460978   -0.916937    0.535499
C     -3.017504    1.427920    0.340166
C     -3.335232   -0.438176   -0.837083
C     -3.547646    1.907405   -0.980584
C     -3.837572    0.645512   -1.759658
C      1.427023   -0.207628   -0.299605
N     -3.577040    0.086312    0.486532
O      3.260539   -0.864010    2.802621
O      1.720172    0.440022   -1.325112
O      0.122920   -0.285164    0.092923
O     -4.826969    1.515631   -1.326232
Br     0.000000    0.000000    0.000000
H     -2.243525   -1.429546    1.196218
H     -3.733836   -1.219464    2.132457
H     -2.424655   -0.033483    2.276310
H     -5.269744   -0.444876    1.646295
H     -5.292561    1.185707    0.940526
H     -5.586989   -0.321064   -0.092616
H      7.392237   -0.202329   -1.482439
H      5.958741    1.719066   -0.890400
H      6.523584   -2.454566   -1.132398
H      3.665865    1.364710    0.047821
H      4.243877   -2.819174   -0.199595
H     -1.162964    1.270429    1.343812
H     -1.182135    2.418179   -0.006018
H     -1.605460   -1.693759   -0.723551
H     -1.800939   -0.807245   -2.245296
H      1.302400   -0.378927    2.254749
H      2.542002    0.798422    1.776465
H     -0.497032    0.873900   -1.499075
H      2.172925   -1.968080    0.650870
H     -3.316163    2.066343    1.190798
H     -3.909166   -1.361518   -0.950966
H     -3.043742    2.713815   -1.535855
H     -3.643892    0.592444   -2.834121
H      3.419238   -0.185293    3.532967
