55

C     -1.553607   -1.150334   -1.906599
C     -0.148067   -1.332284    1.314863
C     -0.342824   -0.393959   -1.530056
C      6.415553   -2.478385    0.235830
C     -2.915138    3.994448   -0.760657
C      5.480569   -2.196824    1.195712
C      6.244033   -1.911970   -1.009641
C     -2.149982    3.787421    0.377886
C     -2.893435    3.058891   -1.763124
C      2.053344    0.298648    0.121495
C      4.404056   -1.365205    0.905244
C      5.178950   -1.088013   -1.305263
C      3.089030    0.055892   -0.677795
C     -1.384591    2.642936    0.476475
C     -2.100646    1.912906   -1.617203
C     -4.478239   -0.781201    2.090711
C     -4.469272   -0.804361    0.634173
C      0.903239    1.124413   -0.136236
C     -2.121296   -0.008912    1.477842
C      4.221082   -0.796864   -0.330395
C     -3.179968   -1.092030    1.300001
C     -1.345793    1.673525   -0.530416
C     -0.459629    0.482133   -0.288578
N     -0.911152   -0.225173    0.821532
Cl     0.688735    0.000000    0.000000
H     -1.343518   -2.265008   -1.736777
H     -2.500817   -0.849044   -1.465025
H     -1.653891   -1.119748   -3.030506
H      0.375184   -1.018964    2.231824
H      0.532326   -1.689978    0.553477
H     -0.811437   -2.173057    1.657805
H     -0.047097    0.309883   -2.362001
H      0.557609   -1.035958   -1.383046
H      7.259027   -3.121862    0.433019
H     -3.542468    4.877738   -0.887077
H      5.562552   -2.608101    2.192957
H      6.984158   -2.131362   -1.801280
H     -2.174985    4.540608    1.146461
H     -3.477836    3.179102   -2.674095
H      2.146956   -0.179796    1.098566
H      3.684745   -1.145467    1.689513
H      5.040622   -0.645747   -2.288816
H      3.057072    0.531567   -1.644153
H     -0.804444    2.527955    1.401987
H     -2.097412    1.202790   -2.442529
H     -4.842365   -1.662640    2.682358
H     -4.563430    0.209186    2.570502
H     -4.565961    0.105993    0.028110
H     -4.937023   -1.700073    0.114698
H      1.054466    1.727882   -1.105635
H      0.890234    1.956376    0.621968
H     -1.900057   -0.067608    2.597865
H     -2.627962    0.956990    1.376053
H     -2.790462   -2.117357    1.327975
H     -0.688735    0.000000    0.000000
