47

C      5.165114    0.762583    0.525197
C      4.086916    0.133447    0.021838
C     -0.256202    2.898126   -1.255751
C     -1.280624    3.682516   -0.774245
C     -1.407447   -2.863810   -1.069079
C     -0.492070   -1.734123   -1.566784
C     -0.448610   -0.335010    1.866174
C      3.119145   -0.466320    0.966940
C      1.020478   -0.543642    1.899345
C      0.966848    0.800810   -1.411147
C     -2.097334    1.797889    0.481083
C     -2.314008   -1.077143    0.482121
C     -0.167461    1.555761   -0.855087
C     -2.198335    3.130528    0.093122
C     -2.567626   -2.236951   -0.381029
C      0.080166   -1.162767   -0.316068
C     -1.080839    1.012895    0.004615
C      1.302025   -0.333256   -0.476285
C     -0.995962   -0.395962    0.420386
N      1.763873    0.095891    0.826155
O     -3.233954    3.901314    0.587793
O     -3.198015   -3.262073    0.367422
H      5.856782    1.192079   -0.178778
H      5.332369    0.834723    1.592547
H      3.936835    0.070476   -1.029547
H      0.470133    3.311844   -1.935473
H     -1.339834    4.726514   -1.093829
H     -1.770911   -3.473404   -1.915434
H     -0.815666   -3.517665   -0.375395
H      0.270702   -2.134244   -2.265559
H     -1.148537   -0.984465   -2.038723
H     -0.698886    0.626157    2.347859
H     -0.913466   -1.124015    2.492522
H      3.466194   -0.367370    2.007173
H      2.979403   -1.557581    0.752301
H      1.361948   -1.581678    2.025465
H      1.394176   -0.022077    2.834740
H      0.702039    0.330724   -2.387195
H      1.839700    1.438953   -1.543515
H     -2.870701    1.443877    1.180416
H     -3.091755   -0.297565    0.206508
H     -2.608381   -1.321620    1.547895
H     -3.327470   -2.019916   -1.192086
H      0.351992   -2.032362    0.343449
H      2.052813   -0.956464   -1.026335
H     -3.379732    4.867359    0.360632
H     -3.815824   -2.812979    0.999562
