32

C     -2.746205    0.869693    0.453368
C     -3.724713   -0.694398   -1.300223
C      2.667837   -1.337263   -1.893187
C      1.354373    0.539943    1.878805
C     -2.644458   -0.066450   -0.479148
C     -1.392894    1.196651    1.016339
C      2.908294   -0.092151    0.502668
C     -0.695237   -0.146255    0.741301
C     -1.212351   -0.438941   -0.620176
C      4.045096   -0.407050   -0.217483
C      1.677149   -0.421787   -0.020278
N      5.293177   -0.059432    0.338782
N      3.874711   -1.019225   -1.390457
N      1.550097   -1.038610   -1.206421
N      2.685801    0.500321    1.674854
N      0.732060   -0.029998    0.830964
O     -4.971687   -0.199144   -1.010046
O     -1.413556    1.370751    2.377199
O     -0.671868    0.408065   -1.594862
H     -3.657661    1.340367    0.775237
H     -3.752308   -1.799703   -1.128514
H     -3.516348   -0.540379   -2.376309
H      2.628685   -1.841754   -2.869489
H      0.903797    0.976415    2.769694
H     -0.917445    2.012824    0.450490
H     -1.113889   -0.867026    1.449159
H     -1.080098   -1.491045   -0.940583
H      5.650148    0.907763    0.220503
H      5.851553   -0.743802    0.856116
H     -5.048365   -0.071819   -0.018261
H     -1.955978    2.131076    2.680624
H     -1.307716    1.052362   -1.950667
