55

C      3.671123    1.306353    1.570485
C     -4.800138    0.094504    1.257213
C     -0.113178    1.372562   -2.709213
C      0.134175   -1.020275   -1.646312
C     -3.141454   -0.573220   -1.283891
C     -1.808029   -2.191433    1.929491
C     -3.095474   -1.477071    1.948489
C     -1.155969   -1.940209    0.561076
C      2.366596    0.388742   -0.496861
C     -1.722927    1.996007   -1.026064
C      4.603785   -0.426225    0.194286
C      1.137845    0.058676    0.281667
C     -2.592964    1.457079    0.053752
C      5.807946   -0.438626    1.075163
C      3.566846    0.380500    0.386731
C     -3.462564   -0.539731    1.113589
C     -0.402022    1.371509   -1.197245
C     -1.198223   -0.470957    0.333597
C     -0.132135    0.055797   -0.581266
C     -2.598269   -0.050237   -0.009201
O      6.972201   -0.140329    0.399694
H      4.563427    1.938935    1.384642
H      3.748062    0.701266    2.474747
H      2.787021    1.963800    1.654372
H     -5.530140   -0.576610    1.763727
H     -5.190942    0.491910    0.301246
H     -4.713763    0.997476    1.929400
H     -0.587038    0.501320   -3.206790
H     -0.602776    2.269635   -3.179865
H      0.953261    1.334996   -2.926278
H      0.648555   -1.902238   -1.162230
H     -0.776515   -1.317356   -2.174788
H      0.882484   -0.623482   -2.363858
H     -4.254665   -0.377790   -1.284165
H     -2.785671   -0.011081   -2.193740
H     -3.035371   -1.641323   -1.443793
H     -1.879211   -3.256029    2.148184
H     -1.151383   -1.683103    2.691387
H     -3.803057   -1.764129    2.736862
H     -0.138810   -2.370770    0.657701
H     -1.757987   -2.544241   -0.151162
H      2.592506   -0.257805   -1.337927
H      2.303917    1.436104   -0.903862
H     -2.331557    1.961331   -1.978320
H     -1.620410    3.106957   -0.840899
H      4.572367   -1.109033   -0.645318
H      1.051794    0.791595    1.110096
H      1.290425   -0.931903    0.752907
H     -2.306262    1.776011    1.055511
H     -3.642885    1.784113   -0.152838
H      5.713995    0.285398    1.906631
H      5.927556   -1.448860    1.550297
H      0.376510    2.086260   -0.788811
H     -1.007149    0.011963    1.341335
H      7.666540   -0.836734    0.449385
