35

C     -2.662402    1.620761    1.036371
C     -1.877288   -0.707672    1.365322
C     -0.920890   -1.400044   -1.402888
C     -2.433721   -1.334333   -1.270438
C      1.279806   -0.433671   -1.113528
C      2.004572   -0.301200    0.205213
C     -1.911836    1.127861   -1.529171
C     -0.172318   -0.391040   -1.005179
C     -2.787460    0.069465   -0.886123
C     -0.868256    0.785654   -0.444621
C     -2.057300    0.398302    0.401690
N      5.870204    0.356579    0.759248
O      3.759115    0.763881    2.238393
O      4.528776   -1.577262    1.877447
O      3.368582   -0.363421   -0.094520
S      4.326324   -0.230874    1.268456
H     -2.864618    1.436406    2.131813
H     -3.657409    1.848965    0.601689
H     -1.993400    2.507640    0.940357
H     -2.829120   -1.316365    1.380816
H     -1.055752   -1.397948    1.169132
H     -1.814051   -0.289040    2.408092
H     -0.515707   -2.305691   -1.833346
H     -2.804623   -2.037286   -0.527412
H     -2.812379   -1.523891   -2.305600
H      1.695827    0.390582   -1.766049
H      1.658816   -1.382604   -1.575758
H      1.797225    0.635952    0.718081
H      1.753975   -1.177449    0.859982
H     -2.327826    2.121210   -1.338230
H     -1.579201    0.910821   -2.551002
H     -3.861347    0.309501   -0.865032
H     -0.267016    1.625375   -0.109465
H      5.855276    1.383584    0.580803
H      6.175423   -0.122751   -0.137802
