36

C     -3.829424   -0.859402   -0.561850
C     -2.925644   -2.049385   -0.760125
C     -3.391443   -0.089420    0.641777
C     -1.566039   -1.445361   -1.127985
C      3.345419   -0.429633   -0.612929
C      4.632443    0.050403   -0.748574
C      3.221260    0.440151    1.572064
C      2.607499   -0.251554    0.539571
C     -1.933032    0.224362    0.690714
C     -1.039463   -0.852304    0.159112
C      5.233982    0.737480    0.285040
C      4.506233    0.924879    1.449565
C     -1.659063    1.496655   -0.025109
C      0.324262   -0.284274   -0.026076
Cl     6.865549    1.358849    0.143479
Cl     5.274270    1.800051    2.764373
N     -1.131188    2.520503    0.557102
N      1.282291   -0.750265    0.668720
O     -1.970488    1.623308   -1.372532
O      0.576038    0.736015   -0.933191
H     -4.884500   -1.146556   -0.421130
H     -3.747451   -0.230825   -1.488576
H     -2.795802   -2.542269    0.247833
H     -3.285411   -2.755566   -1.508998
H     -3.956339    0.865978    0.668689
H     -3.696086   -0.658675    1.546961
H     -0.926245   -2.249371   -1.476793
H     -1.707161   -0.642942   -1.880299
H      2.883012   -0.965171   -1.424992
H      5.205153   -0.091673   -1.652176
H      2.644773    0.583398    2.482217
H     -1.658527    0.389733    1.754298
H     -1.018097   -1.674826    0.901163
H     -0.883009    2.457015    1.579435
H     -2.072571    2.560923   -1.762169
H      1.474798    1.199768   -0.868608
