36

C     -3.758291    0.599485   -0.940152
C     -2.776818   -0.088033   -1.867176
C     -3.537891   -0.062832    0.406639
C     -1.413763    0.488492   -1.547426
C      3.312771    1.545222   -0.448435
C      4.678070    1.419544   -0.252224
C      3.060191   -0.800110   -0.415499
C      2.484757    0.446678   -0.533094
C     -2.096888    0.012184    0.839917
C     -1.197053    0.716311   -0.087219
C      5.240723    0.172586   -0.136429
C      4.427458   -0.942510   -0.218522
C     -1.696197   -1.348153    1.241625
C      0.235814    0.643162    0.227100
Cl     6.954069   -0.079063    0.112547
Cl     5.118535   -2.552794   -0.074001
N     -0.832952   -2.024367    0.598373
N      1.079674    0.525426   -0.733626
O     -2.271949   -1.934181    2.361136
O      0.748208    0.695219    1.512395
H     -3.474471    1.665780   -0.817609
H     -4.800393    0.448391   -1.222963
H     -2.812908   -1.175073   -1.633708
H     -2.976573    0.107570   -2.934519
H     -4.230215    0.390104    1.142958
H     -3.868962   -1.113997    0.283661
H     -0.672480   -0.215896   -1.989296
H     -1.322998    1.416189   -2.154241
H      2.880791    2.536873   -0.538351
H      5.332611    2.268167   -0.184723
H      2.448173   -1.703868   -0.475392
H     -2.126789    0.585179    1.824879
H     -1.419076    1.833884    0.044148
H     -0.299036   -1.796933   -0.232304
H     -2.011302   -2.807760    2.751721
H      1.595158    0.129125    1.675164
