35

C     -2.819857    1.469795    0.084343
C     -3.292563   -0.868572    0.989493
C     -0.103812    0.898783   -1.380193
C     -1.318215    0.321322   -2.025022
C      1.284623    1.004839    0.602202
C      1.948452   -0.361580    0.953106
C     -1.049888   -1.451832   -0.279079
C      0.028777    0.639567   -0.087249
C     -2.012704   -0.634472   -1.115152
C     -0.952016   -0.184589    0.595453
C     -2.392827    0.052639    0.178756
N      5.238876    0.579832   -0.268781
O      5.148109   -1.813430    0.994353
O      3.585788   -1.345602   -0.797055
O      3.197729   -0.042825    1.438535
S      4.342206   -0.779822    0.401608
H     -3.559665    1.649892    0.916415
H     -2.024514    2.220605    0.199041
H     -3.419405    1.600479   -0.851022
H     -3.644428   -1.726782    0.376183
H     -4.195894   -0.308547    1.310730
H     -2.750548   -1.316921    1.847390
H      0.653852    1.451215   -1.919064
H     -1.973197    1.173346   -2.248255
H     -1.008811   -0.241379   -2.930834
H      1.210100    1.575828    1.508731
H      2.026356    1.462793   -0.134904
H      1.980740   -1.016377    0.127441
H      1.285038   -0.767941    1.774124
H     -1.479343   -2.275333    0.284622
H     -0.148544   -1.653672   -0.891143
H     -2.771605   -1.285923   -1.570025
H     -0.811052   -0.366966    1.669059
H      4.716074    0.931227   -1.128422
H      5.082168    1.410401    0.409134
