129

C    -11.077812   -0.557624    1.927196
C     -7.176313    5.902728   -0.991508
C    -10.820614   -1.173425   -0.738791
C     -6.521011    3.544020   -2.332047
C      0.987331   -4.930951    1.393662
C     -0.704353   -4.781897   -0.345591
C      7.588378    3.809284   -1.756860
C      8.546387    3.110773    0.359376
C      7.253076    0.403074    1.232575
C      4.091953    0.700170    1.794321
C      3.011752   -0.243807   -1.718835
C     -9.721650   -0.689044    1.342110
C     -6.644090    4.740860   -0.243238
C      3.889904   -2.010726    0.537067
C      5.240360   -1.550142    0.140026
C      5.597274    2.673571    0.150412
C      8.859410    0.312052   -1.295446
C      7.516713   -0.293266   -1.087182
C      4.217689    2.118570   -0.191381
C      1.064708   -3.025260   -0.117858
C      1.645337    0.865888   -0.034450
C     -0.750078   -3.158621    1.560945
C     -5.924989   -3.456434    0.398912
C      0.498149   -0.375704    2.477115
C     -9.590554   -0.983416    0.067750
C     -6.328562    3.621109   -0.849755
C      2.772029   -1.307478    0.400148
C      1.526656   -1.959856    0.862845
C     -5.102278   -2.199597    0.395275
C      6.578321    1.901156   -0.664325
C      5.272988   -0.101917   -0.266362
C      8.866976    1.755942   -1.636075
C      0.354709    0.104411    0.089158
C     -0.948008   -1.702425    1.087056
C     -3.550607   -0.184741   -0.668174
C     -5.822576   -1.077044   -0.369431
C     -4.960657    0.146708   -0.162416
C     -8.270833   -1.116874   -0.522603
C     -5.795588    2.445275   -0.148626
C     -3.013598   -1.286235    0.182923
C      0.111870   -3.929070    0.628093
C      7.876281    2.583734   -0.869075
C      6.640903    0.505122   -0.106212
C      4.137454    0.688480    0.299419
C      2.865827    0.030335   -0.207759
C      0.369111   -1.010506    1.081838
O     -7.183954   -3.178879    0.946832
O     -0.548452    0.502956    2.709379
O     10.139950    2.270224   -1.397767
O     -0.087835   -0.311721   -1.168670
O     -2.788208    0.950343   -0.756801
O     -8.140017   -1.399061   -1.742502
O     -5.638462    2.527589    1.090597
O     -3.847651   -2.413459   -0.135233
O     -1.693005   -1.656615   -0.054339
O     -7.101920   -0.943514    0.214175
O     -5.471649    1.281425   -0.805375
H    -11.764440   -1.346165    1.538686
H    -11.501551    0.411629    1.582054
H    -11.056243   -0.546588    3.026374
H     -6.701131    5.982493   -2.003056
H     -8.268491    5.826234   -1.094170
H     -6.952450    6.832318   -0.408095
H    -10.574060   -1.279279   -1.834112
H    -11.417812   -2.042578   -0.439914
H    -11.469207   -0.274966   -0.678688
H     -7.450151    4.047475   -2.663065
H     -6.563664    2.479535   -2.630209
H     -5.622389    3.970608   -2.837680
H      1.758771   -5.351604    0.729654
H      1.425101   -4.455025    2.306713
H      0.376758   -5.778919    1.767925
H     -1.060801   -4.184592   -1.198083
H     -1.538289   -5.209323    0.256417
H     -0.086750   -5.635542   -0.670060
H      7.331389    4.681153   -1.139146
H      6.819676    3.547281   -2.497639
H      8.512027    4.069614   -2.315838
H      9.260001    2.372862    0.823414
H      7.881265    3.584270    1.088497
H      9.231208    3.942702    0.012532
H      6.838519   -0.327506    1.929669
H      7.311952    1.369566    1.792696
H      8.343807    0.110553    1.138507
H      3.796372   -0.265464    2.236735
H      3.271451    1.423152    2.081425
H      4.990403    1.136684    2.275715
H      3.518613   -1.219701   -1.880940
H      1.980370   -0.393150   -2.095158
H      3.427827    0.594056   -2.268578
H     -8.871227   -0.536002    1.991234
H     -6.515214    4.824622    0.827355
H      3.875721   -3.027827    0.975033
H      5.948730   -1.833235    0.921652
H      5.520782   -2.200575   -0.743202
H      5.779195    2.693994    1.223689
H      5.609759    3.738061   -0.198133
H      9.590780    0.090266   -0.470413
H      9.301417   -0.230866   -2.184336
H      6.987165   -0.400515   -2.032543
H      7.644994   -1.292321   -0.624023
H      3.449758    2.769764    0.223868
H      4.153983    2.177963   -1.293215
H      0.615051   -2.585135   -1.023640
H      1.897955   -3.668983   -0.459745
H      1.707085    1.607399    0.797782
H      1.521705    1.514513   -0.954341
H     -0.250339   -3.074969    2.546911
H     -1.745286   -3.572462    1.735552
H     -5.442380   -4.179373    1.089674
H     -5.981100   -3.942585   -0.582785
H      1.482608   -0.007333    2.707893
H      0.319251   -1.235213    3.191661
H      1.728229   -2.471430    1.814780
H     -4.970427   -1.812168    1.423330
H      6.113050    1.789716   -1.690304
H      5.114435   -0.095927   -1.390237
H      8.688933    1.868543   -2.731477
H     -0.392952    0.844613    0.463360
H     -1.598794   -1.288779    1.908892
H     -3.740851   -0.626188   -1.693823
H     -5.938585   -1.328929   -1.444291
H     -4.844703    0.282234    0.935967
H     -3.187512   -1.069702    1.239786
H     -7.061999   -2.963674    1.904242
H     -0.272750    1.050839    3.511909
H     10.643872    1.716825   -0.750604
H     -0.211769    0.525384   -1.699364
H     -3.012823    1.391177   -1.619283
