43

C      0.859879   -2.816322   -0.084019
C     -3.653346   -1.924131   -0.810676
C     -3.309165    0.719545   -1.407923
C     -3.631056    0.958818    1.017479
C      5.732585   -1.383942    0.252259
C      2.957169   -1.508936    0.105989
C      1.579670   -1.523203    0.036528
C     -2.752295   -1.173599    0.136603
C      3.567244   -0.277316    0.217039
C      0.806458   -0.373692    0.073384
C      1.426343    0.857442    0.184891
C      0.647429    1.995020    0.220684
C     -1.372838    0.702884    0.035534
C     -0.742162    1.923880    0.146906
C      1.320307    3.294388    0.339300
C      2.805579    0.878640    0.254893
C     -0.575617   -0.417352    0.001778
C      2.767540    3.307698    0.412167
C     -2.812080    0.316258   -0.061283
O     -1.443673    3.120644    0.190423
O      0.636346    4.329900    0.373126
O      3.338316    4.424987    0.513770
O      4.952922   -0.226583    0.289299
O     -1.405284   -1.505886   -0.110825
O      3.459752    2.111057    0.368191
H      0.331656   -2.796870   -1.054975
H      1.603265   -3.662308   -0.076941
H      0.176991   -2.991586    0.765283
H     -4.604931   -1.428964   -1.007728
H     -3.832524   -2.929601   -0.352236
H     -3.077861   -2.142850   -1.757618
H     -2.724840    1.615345   -1.734382
H     -4.363884    1.064933   -1.330486
H     -3.167993   -0.051286   -2.193817
H     -4.255803    0.174797    1.480004
H     -4.292154    1.720506    0.557263
H     -2.972007    1.430775    1.778072
H      6.793134   -1.128471    0.485391
H      5.433344   -2.131963    1.034210
H      5.656833   -1.918792   -0.711147
H      3.541839   -2.429862    0.074728
H     -2.964252   -1.394352    1.203524
H     -2.440839    3.190346    0.145340
