43

C      1.028199    2.118262    1.837619
C     -2.914275    2.322347   -0.263947
C     -3.750232   -0.093542   -1.101638
C     -3.480630   -1.063833    1.146766
C      5.773808    0.734702    0.661404
C      3.006007    0.930966    0.868483
C      1.623341    1.051607    0.989646
C     -2.652035    1.191760    0.733788
C      3.571236   -0.054756    0.084544
C      0.768681    0.187558    0.328379
C      1.327255   -0.798943   -0.456035
C      0.470046   -1.654484   -1.110326
C     -1.474875   -0.576952   -0.229971
C     -0.923595   -1.564056   -1.013034
C      1.020516   -2.702079   -1.942335
C      2.705242   -0.904647   -0.565373
C     -0.600756    0.294602    0.437940
C      2.472180   -2.801720   -2.048422
C     -2.846431   -0.173919    0.098057
O     -1.719149   -2.459333   -1.696745
O      0.245393   -3.494843   -2.549002
O      2.937112   -3.722150   -2.779108
O      4.967423   -0.188499   -0.047166
O     -1.322213    1.222789    1.182234
O      3.235050   -1.899774   -1.355873
H      0.390571    2.814725    1.274452
H      1.838652    2.731456    2.299248
H      0.462954    1.632255    2.681659
H     -3.958059    2.629932   -0.229835
H     -2.242206    3.169908    0.000337
H     -2.683534    1.914006   -1.265198
H     -4.371051    0.830792   -1.041666
H     -4.432090   -0.990170   -1.063850
H     -3.158505   -0.158339   -2.009903
H     -4.280057   -0.498622    1.673998
H     -2.758879   -1.378297    1.926847
H     -3.988411   -1.945105    0.680032
H      5.832718    0.473842    1.748681
H      5.463423    1.776940    0.499364
H      6.833930    0.612208    0.292444
H      3.624809    1.623458    1.399714
H     -3.327581    1.314548    1.580656
H     -2.713984   -2.454599   -1.656865
