44

C     -3.266483   -3.435157    1.938200
C      0.576246    4.115984   -0.251862
C      6.238424   -0.250631    0.963702
C      5.805548   -0.492209   -0.336475
C      5.266801   -0.115101    1.925103
C      4.459207   -0.588457   -0.630269
C      3.927945   -0.210658    1.633845
C     -4.233070   -0.543527   -1.398298
C     -4.560088    0.566891   -1.995476
C     -0.295712   -0.511336    0.718807
C     -2.910200   -2.755256    0.677418
C      0.252810    2.708258   -0.631785
C      3.496529   -0.450663    0.342386
C     -2.912860   -0.708553   -0.726519
C     -0.735226    0.516623   -0.246843
C     -3.654951    1.692362   -2.033848
C     -2.257074    0.559533   -0.426024
C      2.076375   -0.553105    0.027172
O     -2.308734   -3.379973   -0.220132
O      0.621529    2.226668   -1.727866
O     -4.021945    2.746018   -2.626412
O      1.742236   -0.772488   -1.164864
O      1.097568   -0.421479    0.967573
O     -3.235871   -1.435507    0.481843
O     -0.457356    1.849391    0.169975
O     -2.428936    1.569078   -1.422222
H     -2.900732   -4.487691    1.927456
H     -2.721403   -2.922008    2.754604
H     -4.370353   -3.405878    2.093551
H      1.671968    4.237371   -0.266213
H      0.134542    4.307508    0.750610
H      0.137406    4.825297   -0.952088
H      7.288791   -0.176251    1.188827
H      6.572837   -0.597489   -1.085688
H      5.612319    0.074272    2.943141
H      4.139442   -0.777503   -1.651337
H      3.186882   -0.100244    2.407420
H     -4.954149   -1.399453   -1.384036
H     -5.560894    0.625323   -2.477816
H     -0.393245   -1.505182    0.182576
H     -0.847933   -0.602160    1.644518
H     -2.326803   -1.388243   -1.381053
H     -0.307454    0.346804   -1.233460
H     -2.643933    1.018822    0.531860
