37

C      4.324739   -0.012473    1.738826
C      1.389031   -0.090417   -2.410808
C     -2.425392    3.379908    1.029352
C     -4.083665   -0.654918   -0.051287
C     -3.553068   -1.860072   -0.382405
C     -3.257566    0.394761    0.244427
C     -2.184708   -2.053521   -0.428322
C      0.333975    1.068901    0.457020
C      0.640566   -2.508638   -0.551861
C     -1.877513    0.229896    0.206550
C     -1.329048   -1.003995   -0.132547
C     -0.985896    1.332366    0.519985
C      1.902461   -0.611531    1.199553
C      3.133431    0.244010   -0.518225
C      0.974080   -0.178965    0.115205
N      3.180571   -0.121925    0.856972
N      1.854516   -0.003780   -1.050434
N      0.058085   -1.263454   -0.199025
O      1.904120   -2.642211   -0.582205
O      1.577670   -1.287509    2.219542
O      4.086548    0.716834   -1.163091
O     -1.404096    2.558507    0.857532
H      4.135083    0.632239    2.616393
H      5.191214    0.421848    1.175170
H      4.561716   -1.019688    2.114672
H      1.012839    0.925005   -2.720123
H      2.155269   -0.451643   -3.116912
H      0.543768   -0.811404   -2.449071
H     -3.058661    3.554927    0.107316
H     -3.072272    3.085227    1.912095
H     -2.026448    4.424028    1.333773
H     -5.152210   -0.532743   -0.023478
H     -4.178221   -2.731771   -0.627595
H     -3.662219    1.355523    0.508397
H     -1.775860   -3.011775   -0.691373
H      0.977443    1.923388    0.699478
H      0.089721   -3.394937   -0.809066
