39

C     -5.278982    0.534699    2.359528
C     -5.241314    0.661307   -1.241627
C      6.450430   -1.004046   -2.352680
C      6.500688   -1.343002   -1.017073
C      5.269034   -0.568699   -2.880001
C      5.363989   -1.236938   -0.242511
C      4.133489   -0.471302   -2.071152
C      3.041511   -0.737038    0.179390
C      1.800804   -0.328863   -0.173543
C     -2.300828    0.910944   -0.891018
C     -3.797719    0.379431    2.491911
C      4.156772   -0.801160   -0.744141
C      0.749565   -0.298251    0.819194
C     -0.890043    0.505042   -0.728569
C     -3.181847    0.905366    0.069165
C     -0.488615    0.081254    0.581064
C     -1.493632    0.082888    1.643673
C     -2.880081    0.496243    1.424710
O      1.019283   -0.693999    2.154017
O     -0.106112    0.534021   -1.681407
O     -1.119742   -0.297098    2.803285
O     -4.502501    1.322822   -0.236530
O     -3.137824    1.676042    2.331072
H     -5.731324    0.613441    3.378136
H     -5.726979   -0.357381    1.869804
H     -5.589772    1.458348    1.827903
H     -5.400079   -0.401319   -1.053168
H     -6.197187    1.214766   -1.347818
H     -4.715331    0.783523   -2.223947
H      7.337738   -1.080244   -2.984340
H      7.453668   -1.683786   -0.634336
H      5.234939   -0.303893   -3.928904
H      5.444905   -1.513989    0.806887
H      3.214432   -0.126763   -2.505397
H      3.135535   -1.017024    1.226730
H      1.737795   -0.061685   -1.201377
H     -2.582556    1.232082   -1.907293
H     -3.464111   -0.073247    3.441657
H      1.782004   -0.210826    2.638702
