33

C     -1.670992    2.018052   -0.834279
C     -2.189977   -0.814189    1.207790
C     -2.550988   -0.227358   -0.143327
C     -1.008210   -1.781083    1.067425
C      1.564171    1.633743    0.711719
C     -1.385402    0.561998   -0.736121
C     -0.132635   -1.240628   -0.017224
C      0.995616    0.757175   -0.411006
C      1.304281   -1.588097    0.101371
C      1.979504   -0.389975   -0.578794
N     -0.232448    0.222658    0.041066
O      2.771519    2.184746    0.321403
O      1.573085   -2.684973   -0.742976
O      3.163347   -0.173445    0.108484
H     -0.807439    2.653502   -0.623756
H     -1.986482    2.266623   -1.888673
H     -2.566575    2.274211   -0.201669
H     -3.070048   -1.326000    1.591234
H     -1.867256    0.054712    1.851838
H     -3.414561    0.424832   -0.015895
H     -2.852500   -1.070227   -0.793187
H     -0.448040   -1.716158    2.031809
H     -1.368158   -2.808156    0.890774
H      0.837055    2.344239    1.096767
H      1.778700    0.916253    1.557965
H     -1.225219    0.148011   -1.767686
H     -0.543093   -1.621929   -0.996944
H      0.871965    1.341134   -1.344616
H      1.666731   -1.745804    1.116990
H      2.223476   -0.586241   -1.621117
H      3.140880    2.658685    1.111701
H      1.483792   -2.335664   -1.676001
H      3.965900   -0.350647   -0.415068
