33

C     -0.863730   -2.595212   -0.090273
C     -2.432534    0.373754    0.707918
C     -2.360653   -0.688376   -0.366831
C     -1.632144    1.564226    0.225649
C      2.182121   -1.197273    0.586051
C     -0.953102   -1.189069   -0.589383
C     -0.377188    1.056423   -0.400875
C      1.326861   -0.431329   -0.402153
C      0.861574    1.825456    0.059467
C      1.933457    0.926574   -0.572493
N     -0.024716   -0.283719    0.032039
O      2.192300   -0.506925    1.817873
O      0.901544    3.105979   -0.425429
O      3.094336    1.115356    0.140880
H     -1.789746   -3.126680   -0.459761
H     -0.018757   -3.171072   -0.484044
H     -0.933659   -2.624428    1.026803
H     -2.128039    0.014333    1.692578
H     -3.491768    0.695512    0.763853
H     -2.803749   -0.259732   -1.289418
H     -3.047369   -1.515377   -0.048817
H     -1.496329    2.339422    0.983167
H     -2.247036    2.031881   -0.598624
H      3.242790   -1.235769    0.266791
H      1.847279   -2.246486    0.708371
H     -0.767639   -1.170207   -1.678184
H     -0.383227    1.120494   -1.517448
H      1.423792   -0.962750   -1.378426
H      0.907952    1.746696    1.156120
H      2.031620    1.226812   -1.631387
H      2.295181   -1.224897    2.508973
H      0.367447    3.252278   -1.222886
H      3.143132    2.034103    0.479899
