74

C     -4.936115   -2.759260    0.442346
C      6.451796    1.696520    2.097847
C     -2.732446   -2.681530   -1.330877
C     -4.192372   -1.294675   -2.763180
C      4.861164   -0.513294    2.554964
C      3.567852    1.497686    3.189170
C     -4.951365   -1.918856   -0.563702
C      5.271678    1.638676    1.510653
C     -5.877090    2.416216   -0.827053
C      4.693416   -1.134743   -2.121178
C     -5.310147    3.224763   -1.789324
C      4.114982   -2.379524   -2.010846
C     -5.256659    1.256119   -0.414122
C      4.431293   -0.173940   -1.166416
C     -4.104657    2.836519   -2.324500
C      3.287307   -2.658308   -0.961356
C     -2.762188   -0.491323    0.708970
C      2.470303    1.626298    0.493287
C     -4.039090    0.849270   -0.944289
C      3.585484   -0.425656   -0.074337
C     -3.479012    1.662649   -1.905209
C      3.028124   -1.664244    0.008708
C     -1.628709    0.484119    0.942379
C      1.031407    1.501190    0.816046
C     -0.518919   -0.139522    1.713507
C      0.159000    1.448883   -0.394483
C     -1.877150    0.126994   -1.417109
C      2.109653   -0.417708    1.749766
C     -3.723957   -1.553205   -1.349193
C      4.229590    0.756269    2.040791
C     -3.153637   -0.294586   -0.723965
C      3.141469    0.398121    1.060875
N     -2.237870    1.140634   -2.365562
N      2.213344   -1.728583    1.161974
N     -1.064141    0.709217   -0.394607
N      0.840814    0.218391    1.477305
O     -0.764683   -1.000465    2.594275
O      0.482518    2.063878   -1.462817
H     -5.844199   -2.985367    0.970538
H     -4.016010   -3.227655    0.746113
H      6.629046    1.081662    2.972903
H      7.205208    2.358363    1.683085
H     -1.817393   -2.454143   -0.746497
H     -2.378544   -2.849442   -2.395188
H     -3.200749   -3.656101   -1.062709
H     -4.769423   -0.330617   -2.766066
H     -4.823659   -2.156476   -3.056788
H     -3.384147   -1.172743   -3.484887
H      4.260982   -1.379763    2.252125
H      5.896908   -0.600557    2.114284
H      4.894399   -0.531527    3.666172
H      2.652315    2.015773    2.909873
H      4.265566    2.236461    3.635309
H      3.360448    0.754441    3.996609
H     -5.912709   -1.455706   -0.849111
H      5.109529    2.266643    0.636708
H     -6.811829    2.715461   -0.411083
H      5.347379   -0.932567   -2.962787
H     -5.809709    4.148889   -2.114926
H      4.328939   -3.132924   -2.772027
H     -5.686999    0.615121    0.336641
H      4.867471    0.812687   -1.224876
H     -3.646785    3.475849   -3.092383
H      2.822268   -3.640004   -0.861936
H     -3.594508   -0.280632    1.415378
H     -2.380363   -1.492716    0.946884
H      2.880262    2.563921    0.874929
H      2.566438    1.679948   -0.629405
H     -1.991874    1.419746    1.395439
H      0.694861    2.329403    1.473284
H     -1.446203   -0.781756   -1.878215
H      2.289228   -0.545383    2.838397
H     -1.682258    1.400181   -3.190638
H      1.765126   -2.591461    1.520290
