55

C      0.373608   -3.354829   -1.234476
C      0.127155   -3.736718    1.757790
C      4.731770    3.706299   -1.464336
C      3.492692    0.490803    2.894679
C     -1.967097    3.595254   -1.546246
C     -5.706418    0.595154    1.211831
C      1.685902    0.894551   -1.757498
C      2.691741    1.821895   -1.658170
C      2.043354    0.215536    0.458117
C     -1.369701    0.921401   -0.824543
C     -3.220738   -0.538850    0.531897
C      0.571232   -2.238672   -0.196848
C     -0.257582   -2.492397    1.011854
C      1.327199    0.063727   -0.711590
C     -1.076179   -0.388062   -0.471582
C     -2.006790   -1.103507    0.203800
C      3.400231    1.965711   -0.487013
C      3.058257    1.142359    0.577491
C     -2.576882    1.519515   -0.511573
C     -3.516302    0.782857    0.175089
C      0.223080   -0.937457   -0.854624
C     -1.723140   -2.499149    0.606039
O     -2.038275   -3.444983   -0.334470
O      4.430570    2.902738   -0.357304
O      3.763066    1.273032    1.769258
O     -2.892380    2.815634   -0.849932
O     -4.736980    1.342467    0.508002
H     -0.426766   -3.035490   -1.966471
H      0.170876   -4.319718   -0.772030
H      1.296315   -3.373457   -1.850043
H     -0.302428   -3.651363    2.786360
H     -0.193789   -4.661547    1.238575
H      1.229787   -3.718475    1.880988
H      5.610981    4.350697   -1.277863
H      3.870874    4.376254   -1.657926
H      4.945513    3.073182   -2.352467
H      3.595361   -0.599876    2.642424
H      2.516199    0.673951    3.359430
H      4.295837    0.692986    3.641208
H     -0.981594    3.530982   -1.050695
H     -1.870792    3.315788   -2.615637
H     -2.305488    4.666080   -1.481974
H     -5.370018    0.550992    2.277034
H     -5.895995   -0.397266    0.786332
H     -6.670598    1.162549    1.155433
H      1.174062    0.842234   -2.719482
H      2.977328    2.478258   -2.479679
H      1.830707   -0.383737    1.306818
H     -0.668729    1.539263   -1.361558
H     -3.992269   -1.073126    1.069787
H      1.671170   -2.289020    0.060809
H     -0.154672   -1.644498    1.719247
H      0.142250   -1.084630   -1.986386
H     -2.318252   -2.755902    1.531771
H     -3.007261   -3.579421   -0.329650
