72

C      0.602093    6.552305   -1.884515
C      1.975373    6.101300   -2.357170
C      1.935384    4.630856   -2.773686
C      1.516027    3.859230   -1.560849
C      2.809277   -0.732044    1.255349
C      1.415289    2.359722   -1.804103
C      3.194264   -0.109258   -0.041159
C      3.872412   -0.532992    2.332153
C     -7.344639   -2.837147    0.636479
C     -7.405926   -4.147808    1.017900
C     -3.850249    0.752782   -1.534876
C      0.984625    1.747959   -0.497869
C      2.112393   -0.357396   -1.055859
C     -6.194580   -2.400811   -0.015965
C     -3.191449    0.144612   -2.725659
C     -6.383072   -5.035352    0.782287
C      3.348234   -1.251953    3.549310
C     -4.068898   -0.230908   -0.645940
C      0.825401    0.265363   -0.643136
C     -5.126160   -3.239282   -0.285848
C     -2.477285   -1.026956   -2.053110
C     -5.232949   -4.556178    0.119937
C      4.229609   -1.192198    4.749053
C      5.549565   -1.774268    4.501493
C     -3.987009   -2.803238   -1.033527
C     -1.374113   -0.647382   -1.188846
N      5.955271   -2.821817    5.146656
N     -3.603213   -1.458704   -1.165341
O     -4.247087   -5.460107   -0.087015
O      3.586946   -1.983157    5.737805
O      6.426674   -1.228185    3.560062
O     -3.272970   -3.690588   -1.618693
O     -1.472072   -0.864843    0.064114
O     -0.190208   -0.054722   -1.604105
H      0.588476    7.643196   -1.914004
H     -0.153069    6.073705   -2.560216
H      0.382451    6.215281   -0.865037
H      2.264502    6.741350   -3.202595
H      2.671791    6.158733   -1.497150
H      1.303579    4.458540   -3.649289
H      2.979777    4.363615   -3.033610
H      2.308178    3.989267   -0.775340
H      0.569847    4.180041   -1.111322
H      1.865877   -0.418118    1.697166
H      2.769468   -1.845858    1.100120
H      2.343393    1.957956   -2.217960
H      0.606557    2.206646   -2.548070
H      4.153978   -0.604969   -0.359370
H      3.411104    0.984725    0.058245
H      3.990439    0.559590    2.502417
H      4.812974   -0.938784    1.927214
H     -8.160964   -2.183507    0.839366
H     -8.299286   -4.496533    1.530484
H     -4.121075    1.765819   -1.360482
H      0.036959    2.230338   -0.133254
H      1.706820    1.938650    0.320333
H      2.484772    0.020754   -2.038870
H      1.997633   -1.496261   -1.138353
H     -6.163168   -1.386470   -0.344969
H     -2.492876    0.839170   -3.216890
H     -3.961407   -0.291392   -3.368786
H     -6.469302   -6.066636    1.096684
H      3.067152   -2.282446    3.239868
H      2.378481   -0.733042    3.813301
H     -4.507759   -0.119666    0.337911
H      0.468601   -0.089389    0.369230
H     -2.241355   -1.826415   -2.778245
H      4.249949   -0.144655    5.123815
H      5.309141   -3.260641    5.867919
H     -3.370787   -5.508214   -0.461046
H      3.224665   -2.802266    5.274121
H      7.077527   -1.808950    3.068181
