105

C     12.030654    0.289666   -1.345707
C    -11.440198    1.658065   -2.687717
C      0.705764   -1.495654    4.430763
C      2.493886    0.470369    2.230503
C     10.739613    1.046566   -1.283695
C    -10.004191    1.234431   -2.990048
C     10.262813    1.260128    0.131573
C     -9.209093    1.417274   -1.731523
C     10.010382    0.032472    0.907773
C     -9.752739    0.580298   -0.602038
C      9.074630   -0.988041    0.439593
C     -9.718644   -0.874395   -0.939879
C      7.647913   -0.700578    0.209102
C     -8.324918   -1.385147   -1.225215
C      7.262587    0.261076   -0.839247
C     -7.415260   -1.190743   -0.021947
C      5.751832    0.455651   -0.953652
C      5.076380   -0.826181   -1.290521
C     -6.028106   -1.714996   -0.340945
C      3.571506   -0.668530   -1.423763
C     -5.141912   -1.521032    0.828066
C      3.197983    0.302244   -2.493327
C     -3.738939   -1.981690    0.683210
C      1.697958    0.470522   -2.623884
C     -2.923038   -1.395900   -0.370569
C      1.097652    0.977376   -1.347501
C     -2.646752    0.016555   -0.467355
C      0.170071    0.308904   -0.666711
C     -2.557906    0.878910    1.892006
C     -1.958728    0.811471    0.534481
C     -2.047326    0.284992    2.943242
C     -0.803363   -0.498640    2.751416
C      0.112583   -0.000664    1.730771
C     -2.319795    0.152494    4.373099
C      0.078389    2.143225    0.896976
C     -0.081348   -0.265970    4.067277
C      1.055022    0.860943    2.498464
C     -0.453413    0.766267    0.596575
O     -3.476027    0.238227    4.855352
O     -0.131622    3.153534    0.178205
O     -1.091723   -0.073649    5.030967
O      0.812372    2.153507    2.043028
O      0.749956    0.797157    3.852010
H     12.872905    0.963873   -1.047124
H     12.228369   -0.047220   -2.377666
H     12.002991   -0.626603   -0.720020
H    -11.952557    0.778802   -2.297857
H    -11.889834    2.057197   -3.623008
H    -11.390038    2.446743   -1.921448
H      0.681801   -1.717754    5.516079
H      1.777653   -1.422755    4.147731
H      0.281047   -2.410138    3.936303
H      2.542110   -0.586134    1.910288
H      2.933942    1.088202    1.411697
H      3.099040    0.569812    3.147303
H     10.886937    2.045352   -1.735800
H      9.985612    0.504847   -1.892951
H     -9.598060    1.938933   -3.760794
H     -9.998473    0.197763   -3.330510
H      9.515153    2.033580    0.273246
H     11.192326    1.732814    0.652588
H     -8.143113    1.205867   -1.913765
H     -9.265292    2.482191   -1.394129
H     11.017529   -0.470112    1.057571
H      9.706087    0.370052    1.946945
H     -9.222390    0.760262    0.341696
H    -10.837613    0.846663   -0.468183
H      9.137594   -1.847768    1.204865
H      9.522355   -1.487422   -0.487899
H    -10.090525   -1.468235   -0.067303
H    -10.347426   -1.103888   -1.812184
H      7.214482   -0.397655    1.216077
H      7.145459   -1.688675   -0.040244
H     -7.890696   -0.960171   -2.149087
H     -8.421505   -2.487925   -1.369404
H      7.621892   -0.145742   -1.824430
H      7.761525    1.232688   -0.728815
H     -7.824912   -1.848252    0.780433
H     -7.394228   -0.144160    0.327833
H      5.637050    1.153353   -1.833606
H      5.338614    0.919940   -0.048189
H      5.212072   -1.527960   -0.412473
H      5.540616   -1.314552   -2.154682
H     -6.150808   -2.752892   -0.674372
H     -5.662625   -1.089542   -1.200948
H      3.198482   -1.698372   -1.702672
H      3.170639   -0.433177   -0.424933
H     -5.612558   -2.006129    1.710077
H     -5.140494   -0.426131    1.072294
H      3.662334    1.288515   -2.246428
H      3.586100   -0.071581   -3.450450
H     -3.213899   -1.977706    1.651969
H     -3.803319   -3.095080    0.449846
H      1.294321   -0.571474   -2.783108
H      1.410399    1.047709   -3.499332
H     -3.377213   -1.708238   -1.363792
H     -1.946683   -1.973276   -0.383810
H      1.452625    1.932575   -0.980926
H     -2.078882    0.174159   -1.442240
H     -3.629990    0.539965   -0.719419
H     -0.114183   -0.641778   -1.119870
H     -3.472095    1.437396    2.072898
H     -2.143009    1.892287    0.169536
H     -1.065685   -1.564300    2.612788
H      0.713140   -0.874990    1.334598
