72

C      0.529374    6.648671    2.333263
C      1.985137    6.263969    2.189620
C      2.100472    5.325547    1.001707
C      1.235640    4.132024    1.316589
C      3.239563   -0.441751   -2.251592
C      1.311790    3.120745    0.122012
C      2.223025    0.581696   -1.739885
C      3.982354   -1.099626   -1.081557
C     -4.731536   -5.040703    0.597848
C     -5.341085   -5.743881   -0.405338
C     -4.080329    1.368223    1.157691
C      0.446979    2.010227    0.522502
C      1.203801   -0.028767   -0.859903
C     -4.702976   -3.662115    0.542372
C     -3.508307    0.223246    1.959952
C     -5.902807   -5.042874   -1.433782
C      4.959143   -2.080353   -1.682789
C     -4.619925    0.852753    0.058968
C      0.161453    0.858034   -0.352603
C     -5.266945   -2.915171   -0.496439
C     -3.165184   -0.700649    0.772348
C     -5.886029   -3.639701   -1.514731
C      5.797992   -2.819680   -0.704561
C      4.977297   -3.612299    0.221346
C     -5.327204   -1.476075   -0.524844
C     -2.155127    0.072590   -0.061741
N      5.068056   -4.905545    0.205362
N     -4.436355   -0.611513    0.079984
O     -6.473183   -3.038245   -2.589307
O      6.638506   -3.677089   -1.434225
O      4.104380   -3.026142    1.116721
O     -6.305135   -0.949062   -1.181461
O     -2.435632    0.643869   -1.120255
O     -0.862817    0.151162    0.366003
H      0.038916    5.959864    3.054475
H      0.500898    7.659992    2.796712
H      0.046460    6.626747    1.346378
H      2.302730    5.728490    3.104951
H      2.618931    7.151507    1.988920
H      1.765216    5.834302    0.087356
H      3.134143    4.966497    0.858394
H      0.196299    4.494841    1.434512
H      1.526437    3.641988    2.255037
H      4.002679    0.146070   -2.801754
H      2.812104   -1.163532   -2.943582
H      2.419592    2.876550    0.164384
H      1.069829    3.690909   -0.765065
H      1.749450    0.975103   -2.688065
H      2.841449    1.379315   -1.316843
H      4.470358   -0.324196   -0.494056
H      3.219555   -1.698951   -0.523250
H     -4.271475   -5.535424    1.433120
H     -5.370183   -6.844759   -0.371017
H     -4.028538    2.391647    1.471962
H      0.926822    1.566888    1.470340
H     -0.543440    2.398313    0.920203
H      1.789024   -0.393667    0.058733
H      0.818362   -1.005221   -1.258691
H     -4.258742   -3.096397    1.361483
H     -2.625816    0.510591    2.524223
H     -4.326977   -0.226945    2.523796
H     -6.397920   -5.590611   -2.249019
H      5.640440   -1.524364   -2.393932
H      4.398129   -2.805906   -2.334592
H     -5.116989    1.392794   -0.724833
H     -0.409547    1.268557   -1.272868
H     -2.781273   -1.649459    1.045163
H      6.479690   -2.138610   -0.142836
H      5.698817   -5.427841   -0.435488
H     -6.609318   -2.161242   -2.925479
H      7.577046   -3.377060   -1.431722
H      3.932457   -3.438294    2.043674
