38

C      2.876798   -1.977537   -1.688813
C     -1.121603    2.571463    0.264657
C     -2.158046   -2.183068   -1.764364
C      4.333726    1.699716   -0.164077
C      0.688196   -1.435528   -0.716203
C      1.703286    0.970378    0.261301
C      2.010153   -1.054806   -0.922848
C     -0.542692    1.523274    1.231423
C     -2.385675   -1.533041   -0.423349
C      0.367509    0.652099    0.505219
C     -0.082836   -0.562005   -0.006663
C      2.536279    0.134670   -0.446871
C     -1.498667   -0.870361    0.278668
C     -1.675603    0.932484    1.960231
C     -2.086559   -0.442971    1.563705
C     -3.641516   -1.455533    0.308810
O     -2.810617    1.756855    1.879676
O     -4.738282   -1.988204   -0.063046
O      3.881255    0.466901   -0.686243
O     -3.433511   -0.716951    1.453264
H      2.456247   -2.242668   -2.679216
H      2.981562   -2.935369   -1.113939
H      3.888712   -1.531433   -1.828076
H     -1.626805    2.020758   -0.536716
H     -1.871910    3.205696    0.773469
H     -0.320876    3.255043   -0.096283
H     -3.179404   -2.201530   -2.247479
H     -1.516273   -1.552691   -2.422168
H     -1.861526   -3.227254   -1.697614
H      3.613719    2.481905   -0.533947
H      5.366675    1.925732   -0.424858
H      4.191744    1.653659    0.950004
H      0.267710   -2.356098   -1.077614
H      2.058723    1.912015    0.657152
H      0.081101    2.120186    1.950490
H     -1.431792    0.912745    3.063083
H     -1.683719   -1.192633    2.325128
H     -3.635486    1.264102    2.114107
