44

C      5.344310   -1.340448    2.205731
C     -3.933661   -1.445391    0.432617
C     -4.170989    0.849216    0.873958
C      1.221053    1.438658   -2.047359
C     -5.297075   -1.629305    0.671831
C     -5.526276    0.668457    1.112093
C      0.194839   -0.766355    1.194441
C     -0.056920    1.195894   -1.223673
C     -1.054818   -0.393477    1.406786
C      3.536912    1.573132   -1.210357
C      3.124728   -0.503393    0.516207
C     -3.348453   -0.201928    0.529997
C      2.307252    0.950542   -1.153046
C     -6.112870   -0.573710    1.015210
C      0.796260   -0.830179   -0.157972
C      2.067266   -0.096328   -0.296096
C      4.586474    1.164717   -0.400170
C     -1.896934   -0.023747    0.272227
C     -0.198652   -0.310410   -1.169916
C      4.363467    0.102873    0.477666
O     -7.473846   -0.774742    1.250995
O      5.836930    1.785111   -0.446797
O      5.428050   -0.271313    1.262900
O     -1.499172   -0.696579   -0.854468
H      5.323028   -2.329515    1.711627
H      4.352899   -1.242203    2.738024
H      6.182059   -1.329672    2.911009
H     -3.351895   -2.322179    0.166448
H     -3.706444    1.829277    0.950087
H      1.266523    2.543974   -2.179440
H      1.183381    0.914712   -3.008922
H     -5.753506   -2.621795    0.591992
H     -6.159588    1.499849    1.380745
H      0.812560   -1.038563    2.040079
H      0.204367    1.624086   -0.212334
H     -0.917928    1.699506   -1.684985
H     -1.433009   -0.368331    2.416739
H      3.703153    2.391993   -1.889687
H      3.000393   -1.324426    1.214834
H      0.971595   -1.929081   -0.364244
H     -1.727013    1.065074    0.075235
H      0.047716   -0.765559   -2.150176
H     -8.182447   -0.718049    0.543966
H      5.946279    2.549609   -1.100156
