48

C      7.063040    0.331011    0.457060
C     -5.636516    0.099426   -2.579733
C     -1.597449    0.195151    2.443010
C      3.131470   -0.880088    0.964843
C     -0.729679   -0.580175   -1.449492
C     -0.583076    1.179942    1.896729
C      4.422887   -0.482439    0.804703
C      0.187171   -1.512164   -1.233048
C     -3.987757   -0.037102    1.943805
C      2.867000   -0.896953   -1.386441
C     -3.491448    0.210080   -0.753282
C     -2.705571    0.140433    1.467290
C      2.327382   -1.095250   -0.132919
C     -1.069593    0.458853   -0.432698
C     -2.426673    0.266472    0.132816
C      4.172482   -0.493622   -1.598255
C     -5.032758   -0.088521    1.018867
C      0.901738   -1.534509    0.049346
C     -0.018988    0.503441    0.636980
C      4.943861   -0.289100   -0.475630
C     -4.793314    0.034201   -0.331184
O      4.696368   -0.299760   -2.864805
O     -6.340587   -0.265162    1.442365
O      6.253185    0.114902   -0.669437
O     -5.878019   -0.026147   -1.193029
O      0.322295   -0.780473    1.035751
H      6.799983    1.253318    1.013143
H      8.124211    0.408685    0.098232
H      7.008974   -0.570595    1.112044
H     -5.371203    1.133512   -2.863330
H     -6.545316   -0.170804   -3.163440
H     -4.829596   -0.562089   -2.934527
H     -1.103584   -0.814134    2.427317
H     -1.920431    0.445713    3.464541
H      2.745703   -1.024997    1.977748
H     -1.239143   -0.597511   -2.416411
H     -1.047300    2.148994    1.635648
H      0.247627    1.276607    2.614015
H      5.058727   -0.311849    1.655892
H      0.435339   -2.268343   -1.971606
H     -4.191152   -0.135773    3.011910
H      2.256868   -1.059142   -2.258597
H     -3.313987    0.306119   -1.825608
H     -1.078054    1.433884   -1.003295
H      0.978351   -2.584190    0.447839
H      0.844984    1.090974    0.285399
H      5.659332   -0.004582   -2.934323
H     -6.517785   -0.355433    2.433797
