48

C      5.310980   -2.989710   -0.621636
C     -5.861915   -2.341559   -0.370903
C      3.507905    1.327974    1.228881
C     -1.458425    2.321239   -0.195278
C     -0.605380   -0.741512    0.891149
C      4.863230    1.291937    1.510330
C     -0.546283    1.851424   -1.273646
C      0.592430   -0.343991    1.242294
C     -3.926926    2.068202   -0.103703
C      3.631146   -0.756645    0.169892
C     -3.646984   -0.665680   -0.337482
C     -2.682887    1.483680   -0.208183
C      2.862408    0.314373    0.557706
C     -1.159684   -0.438820   -0.435145
C     -2.507640    0.122502   -0.326269
C      5.616929    0.227611    1.122668
C     -5.036711    1.222218   -0.120971
C      1.420040    0.427617    0.297178
C     -0.236457    0.395394   -1.286414
C      4.982030   -0.808391    0.442171
C     -4.918738   -0.143385   -0.236727
O      6.962792    0.200521    1.406678
O     -6.293623    1.773881   -0.018551
O      5.787938   -1.872276    0.066307
O     -6.050911   -0.945472   -0.249399
O      1.074944    0.070828   -0.994071
H      4.866306   -3.722786    0.096132
H      4.579616   -2.648424   -1.381525
H      6.143250   -3.524862   -1.127366
H     -5.143874   -2.652318    0.425278
H     -5.340718   -2.533062   -1.333975
H     -6.833896   -2.871737   -0.297788
H      2.968373    2.212340    1.570200
H     -1.073935    2.322499    0.817258
H     -1.709941    3.391225   -0.435444
H     -1.192348   -1.299032    1.586518
H      5.322075    2.127377    2.047317
H     -1.006609    2.205864   -2.245753
H      0.426389    2.427655   -1.245660
H      0.977719   -0.576674    2.216969
H     -4.035263    3.142145   -0.011953
H      3.162270   -1.588185   -0.367298
H     -3.501593   -1.743297   -0.431236
H     -1.278507   -1.440661   -0.947077
H      1.128655    1.490883    0.417142
H     -0.395526    0.047230   -2.351836
H      7.376315    0.972235    1.900423
H     -7.118967    1.209627   -0.026157
