78

C      3.912387   -1.938820    1.619382
C      5.285097    0.045211    1.437601
C      0.690404   -0.743774    3.479306
C      1.352789    5.415525   -3.885287
C      4.285266    0.231233   -1.434709
C     -3.408935   -4.437039    0.323822
C     -3.195316   -0.424687    2.594418
C      4.174247   -0.944997   -0.569949
C     -2.196632   -3.653372   -0.131808
C      3.180201    1.190697   -1.589023
C     -4.385809   -3.416404    0.814601
C     -3.856104   -1.735699    2.334799
C     -3.498065    1.682713    1.504548
C     -2.345059    0.992056   -0.841830
C     -1.404201   -2.302496    1.749751
C      1.000147    1.997410   -2.305489
C     -4.004448    4.237165   -0.978843
C     -2.995303    0.404266    1.367530
C     -2.408430    0.060242    0.168321
C     -3.454593    2.642057    0.521652
C     -2.861819    2.281608   -0.680034
C     -0.247331   -1.695090    1.400632
C      1.564224    3.096450   -3.105225
C     -1.812140   -1.198896   -0.252008
C     -0.310483   -1.326406    0.007810
C      1.149234   -0.298925   -1.609433
C      4.016314   -0.616809    0.902595
C     -2.316786   -2.371676    0.605788
C      1.927523    0.770068   -2.239309
N     -3.697845   -2.158103    0.977467
O      2.616869    3.075862   -3.777803
O      1.141304   -1.446753   -2.200780
O      2.981331    0.194109    1.217440
O      2.188614    0.417977   -3.601133
O      0.800196   -1.485542    2.284871
O      0.870268    4.327291   -3.143695
O     -3.882348    3.969553    0.418981
O     -2.950695    3.412574   -1.478185
O      0.399298   -0.224925   -0.448506
H      4.839810   -2.512553    1.338734
H      3.927343   -1.835486    2.700064
H      3.060745   -2.517276    1.199115
H      6.195499   -0.369170    0.982953
H      5.224059    1.157726    1.351971
H      5.316339   -0.187041    2.522294
H     -0.079727   -1.239445    4.120117
H      0.484836    0.315900    3.300557
H      1.661259   -0.799040    4.020073
H      1.862811    5.104977   -4.820267
H      2.034971    6.070016   -3.343041
H      0.479927    6.043715   -4.212811
H      4.598371   -0.138954   -2.458219
H      5.223622    0.806134   -1.118542
H     -3.168079   -5.215754    1.059385
H     -3.876439   -4.960017   -0.553132
H     -2.274083   -0.466375    3.205275
H     -3.917163    0.160917    3.243381
H      5.168694   -1.495664   -0.618920
H      3.405017   -1.688662   -0.821859
H     -2.223956   -3.540326   -1.223318
H     -1.304495   -4.263101    0.208471
H      3.637438    2.114244   -2.074220
H      2.887834    1.628781   -0.570611
H     -5.246544   -3.257502    0.128254
H     -4.801618   -3.792914    1.781715
H     -3.542420   -2.534009    3.053815
H     -4.976226   -1.674396    2.503304
H     -3.964821    1.962668    2.450491
H     -1.900423    0.749989   -1.794538
H     -1.551258   -2.667252    2.758582
H      0.012259    1.696960   -2.725325
H      0.887700    2.346709   -1.262006
H     -3.886751    5.289813   -1.235357
H     -4.992330    3.859722   -1.331806
H     -2.025051   -1.473651   -1.295518
H     -0.033890   -2.203507   -0.648769
H      3.133330    0.818381    1.959415
H      1.420036    0.681788   -4.161504
