50

C      5.702478    0.778280    3.166902
C     -3.085063    3.254831   -1.412479
C      3.522678    0.536537   -1.443688
C      4.887245    0.647235   -1.647663
C     -1.635407   -1.331703   -0.437674
C      3.831506    0.592955    0.897599
C     -2.938807    0.568527   -0.869336
C      1.225390   -2.028596    0.595458
C     -6.312821   -1.719438    0.609851
C      2.975655    0.507668   -0.181580
C     -2.913216   -0.773194   -0.600307
C     -0.472342   -0.607875   -0.535711
C      0.971409   -0.946663   -0.416640
C      5.699105    0.729420   -0.526081
C     -5.491850   -1.265813   -0.604785
C      5.201170    0.704914    0.757662
C     -1.767152    1.300929   -0.968661
C     -4.089091   -1.628114   -0.476365
C      1.528397    0.389979    0.012167
C     -0.515167    0.739887   -0.806321
O      2.600825   -2.259184    0.619594
O     -6.020020   -0.958975    1.717647
O      7.070242    0.840823   -0.717563
O     -5.783434    0.049003   -0.879688
O     -3.885345   -2.879292   -0.218115
O      6.080466    0.792022    1.827156
O     -1.804832    2.682056   -1.246396
O      0.790914    1.253877   -0.855877
H      4.760051    1.355732    3.273346
H      5.498036   -0.234524    3.572862
H      6.454582    1.328244    3.798272
H     -3.639839    2.721964   -2.230201
H     -3.715487    3.104717   -0.498131
H     -3.037843    4.311572   -1.727328
H      2.856390    0.470171   -2.281792
H      5.341158    0.672071   -2.627450
H     -1.586891   -2.394510   -0.223494
H      3.453575    0.574902    1.914333
H     -3.869837    1.087438   -1.010344
H      0.758222   -2.956201    0.206583
H      0.864446   -1.750289    1.598775
H     -7.392380   -1.596556    0.382382
H     -6.150858   -2.811188    0.784835
H      1.368540   -1.267384   -1.394569
H     -5.913166   -1.885776   -1.463205
H      1.204468    0.588481    1.052021
H      2.888504   -2.394984    1.537587
H     -6.602860   -0.165448    1.809116
H      7.496092    0.864389   -1.615040
H     -6.407837    0.407085   -0.217665
