50

C     -5.609013   -2.125703   -1.112610
C      1.752918   -3.543045   -1.528348
C     -3.400612    1.765357    1.085835
C     -4.677815    1.685570    1.630877
C      1.984220    1.131950    0.325180
C     -3.853877   -0.106214   -0.263295
C      2.593531   -1.014416   -0.475094
C     -0.358805    3.062481   -0.239572
C      5.440272   -1.350828    1.246690
C     -2.962701    0.873029    0.129308
C      2.974615    0.203041    0.030857
C      0.642636    0.876722    0.129280
C     -0.611758    1.667268    0.350387
C     -5.549082    0.706909    1.229227
C      5.453075   -0.415052    0.019957
C     -5.130138   -0.198476    0.270854
C      1.240763   -1.297759   -0.682575
C      4.372578    0.553831    0.248981
C     -1.609910    0.928730   -0.472027
C      0.282782   -0.353310   -0.379586
O     -0.074838    2.983877   -1.590639
O      5.582675   -0.468818    2.340530
O     -6.835115    0.583499    1.741993
O      6.702177    0.242405    0.088410
O      4.683145    1.730575    0.649195
O     -6.011482   -1.187553   -0.134689
O      0.835814   -2.520881   -1.191938
O     -1.102445   -0.393714   -0.493920
H     -4.794550   -2.786086   -0.770918
H     -5.264204   -1.588896   -2.017634
H     -6.525431   -2.744328   -1.331131
H      1.192083   -4.520965   -1.585562
H      2.139250   -3.342480   -2.545024
H      2.546896   -3.680171   -0.770255
H     -2.711971    2.536195    1.401005
H     -4.989639    2.397877    2.376362
H      2.306457    2.086442    0.723124
H     -3.535411   -0.821059   -1.014075
H      3.301719   -1.785425   -0.739044
H      0.540807    3.511843    0.250488
H     -1.195727    3.745675   -0.012170
H      4.461394   -1.845584    1.286090
H      6.297700   -2.026243    1.190426
H     -0.836745    1.734347    1.418542
H      5.380222   -0.950379   -0.918271
H     -1.634182    1.372509   -1.482073
H      0.833111    3.312611   -1.817193
H      6.242169   -0.827329    2.975222
H     -7.208781    1.196909    2.434330
H      6.701224    1.005062   -0.521001
