64

C     -7.726751   -1.687684   -1.045203
C      8.758064    0.669227   -0.450990
C     -1.641077   -0.916165    0.541036
C     -0.442966   -0.284763   -0.129196
C     -2.582995    0.117896    1.023041
C      0.291163    0.577038    0.852361
C     -3.774282   -0.519985    1.692960
C      1.489621    1.191135    0.164337
C     -4.502016   -1.399965    0.706994
C      2.428894    0.127939   -0.339064
C     -5.728358   -2.030896    1.355401
C      3.587764    0.901946   -0.982961
C     -6.728705   -1.066784    1.844922
C      4.626524   -0.020945   -1.544148
C     -7.428940   -0.171301    0.910389
C      5.780751    0.635612   -2.157393
C     -8.359050   -0.744144   -0.095802
C      7.442643    0.829511   -0.282141
C      6.704137    1.489485   -1.362207
C      6.928236    0.360283    0.986396
C      7.721878    1.987270   -2.363580
O     -8.815804    0.355186   -0.889063
O      5.742917    0.444991    1.300509
O      7.776595   -0.226052    1.937930
O      7.801642    1.451085   -3.467201
O      8.535075    3.032324   -2.008748
H     -7.863501   -2.756864   -0.774719
H     -8.143465   -1.568283   -2.092780
H     -6.659910   -1.487798   -1.159561
H      9.225598    1.012108   -1.338148
H      9.337915    0.196604    0.305399
H     -1.241897   -1.493047    1.405262
H     -2.115704   -1.600426   -0.204933
H     -0.746519    0.326999   -1.016375
H      0.229682   -1.087465   -0.555377
H     -2.142473    0.864717    1.722647
H     -2.949274    0.723713    0.137004
H      0.718627   -0.031481    1.695834
H     -0.344871    1.382925    1.267719
H     -4.452639    0.319509    1.988954
H     -3.425498   -1.087670    2.580540
H      2.073523    1.839782    0.861630
H      1.198174    1.834551   -0.696087
H     -4.696145   -0.805186   -0.173236
H     -3.834711   -2.257332    0.410625
H      1.975215   -0.428554   -1.200645
H      2.770248   -0.546726    0.446139
H     -6.102343   -2.821219    0.720784
H     -5.321091   -2.553756    2.287572
H      3.078763    1.410833   -1.864265
H      3.976944    1.624979   -0.275948
H     -6.298085   -0.500228    2.721205
H     -7.538547   -1.689710    2.357578
H      4.897173   -0.820082   -0.833094
H      4.074536   -0.618626   -2.366810
H     -8.041776    0.537605    1.537012
H     -6.724532    0.511684    0.351154
H      6.377568   -0.140302   -2.732544
H      5.377499    1.297302   -2.994470
H     -9.274435   -1.200734    0.392928
H      6.195390    2.426179   -1.010852
H     -8.260702    1.147951   -0.753685
H      7.452143   -0.407181    2.888518
H      9.334159    3.342984   -2.582235
