70

C      9.826808    2.716472    0.125613
C     -5.183914    4.758189   -1.970640
C      7.451161   -1.643616   -2.291002
C     -7.492873   -0.263100   -1.317645
C     -3.757790   -3.890023    2.164448
C     -4.596447   -2.883862    1.388177
C     -2.299610   -3.570763    2.178214
C      5.710762    1.883494    0.793131
C      3.697813    0.478915    0.399459
C     -2.825530    1.455166   -0.824600
C      7.070806    2.153059    0.568484
C     -3.601221    2.557591   -1.205216
C      2.915580    1.208847    1.168815
C     -3.955325   -1.528646    1.625171
C      5.894835    0.007362   -0.618742
C     -4.736971    0.093621   -0.885483
C     -0.460777   -2.125912    1.380133
C     -1.063085   -0.763020   -0.552697
C      5.098923    0.812118    0.207924
C     -3.374088    0.213744   -0.659058
C     -1.868731   -2.616830    1.126413
C     -0.332129   -0.728537    0.770071
C     -2.549722   -0.930697   -0.290914
C      7.839453    1.356816   -0.243626
C     -4.953733    2.404493   -1.422215
C      7.228059    0.272849   -0.838053
C     -5.514880    1.174415   -1.261458
C      1.496748    0.818991    1.324832
N     -2.700646   -1.443878    1.022537
O      0.726595    1.494562    2.051240
O      9.174947    1.613827   -0.469764
O     -5.762370    3.484130   -1.803711
O      8.013684   -0.530704   -1.660698
O     -6.883357    1.027037   -1.482513
O      0.969933   -0.281722    0.691268
H      9.685606    3.618491   -0.515545
H      9.515969    2.886799    1.162551
H     10.917651    2.432858    0.169492
H     -4.482157    4.732953   -2.825927
H     -6.001117    5.478890   -2.180311
H     -4.663615    5.017514   -1.030866
H      8.148436   -1.956886   -3.100870
H      6.501261   -1.312049   -2.781975
H      7.283641   -2.485265   -1.598666
H     -8.590767   -0.190551   -1.401103
H     -7.221797   -0.636024   -0.298985
H     -7.098368   -0.942290   -2.076688
H     -3.987985   -4.890887    1.756047
H     -4.130294   -3.831887    3.224636
H     -4.614344   -3.124629    0.312537
H     -5.612509   -2.857563    1.832141
H     -1.752504   -4.541228    1.995475
H     -1.947454   -3.249312    3.192732
H      5.138177    2.528729    1.435755
H      3.240905   -0.383111   -0.082866
H     -1.783298    1.658823   -0.669380
H      7.483792    3.025080    1.070887
H     -3.133270    3.531611   -1.328339
H      3.241922    2.080044    1.698128
H     -4.599641   -0.675177    1.448981
H     -3.783819   -1.514527    2.755406
H      5.419814   -0.831955   -1.078483
H     -5.251760   -0.869449   -0.786236
H     -0.242878   -2.019881    2.457990
H      0.299338   -2.780720    0.895705
H     -0.809083    0.030114   -1.247243
H     -0.704594   -1.726960   -1.038836
H     -1.835162   -3.153247    0.137197
H     -0.906727   -0.050819    1.437949
H     -2.926277   -1.781875   -0.975120
