70

C     -0.445274   -4.614083    0.995283
C      2.157598   -2.386592   -0.716533
C      4.595390    0.711746   -1.579785
C     -1.578148   -3.104184   -0.586607
C      3.489516   -1.155243    1.471606
C      4.392396   -0.008974    1.723210
C      1.387734    1.413773   -0.295019
C     -3.059091   -3.205036   -0.480771
C      0.685583    2.063052   -1.129519
C      0.188791   -2.162684    0.935576
C     -3.606529    4.306482    1.130392
C     -2.459340    0.942152   -0.257983
C      3.589431    2.548244   -0.455157
C     -0.912647   -3.192558    0.762472
C      1.324859   -1.803119    0.445506
C      2.237945   -0.627907    0.878032
C     -3.376761    2.802174    1.024523
C      2.433819    0.298607   -0.362106
C      4.502521    0.974681    0.884832
C     -4.755235    3.311143    0.973338
C     -2.626979    2.429495   -0.264356
C     -3.711029   -1.836144   -0.534058
C     -0.334053    3.153409   -1.024859
C     -2.949419    0.319530   -1.516130
C      5.303443    2.206133    0.885483
C      3.749288    1.013881   -0.357800
C     -5.188862   -2.060521   -0.800806
Cl    -5.614223    3.425477   -0.569325
Cl    -5.898422   -3.047551    0.516160
Cl    -6.064319   -0.521875   -0.920738
Cl    -5.385540   -2.956431   -2.320762
N      4.769738    3.088017    0.117866
O     -0.149222    4.254371   -1.727156
O     -3.113257    1.097642   -2.491643
O      6.480391    2.429877    1.601449
O     -1.479774    3.188365   -0.284514
O     -3.191948   -1.037738   -1.549301
H     -1.207310   -5.252200    1.483693
H      0.396190   -4.548563    1.721946
H     -0.123180   -5.099551    0.036569
H      3.203554   -2.018751   -0.708492
H      1.717348   -2.126683   -1.697752
H      2.320606   -3.456180   -0.728638
H      4.418933   -0.343766   -1.851425
H      5.647698    0.947703   -1.442402
H      4.247195    1.307631   -2.464475
H     -1.313359   -2.079391   -0.983134
H     -1.134298   -3.806185   -1.323210
H      3.978156   -2.012754    1.057096
H      3.202184   -1.500221    2.523603
H      5.007503    0.045050    2.640576
H      1.421638    1.544975    0.857185
H     -3.425626   -3.833922   -1.327581
H     -3.331632   -3.723576    0.440908
H      0.705475    1.948842   -2.280667
H     -0.329372   -1.624597    1.851386
H     -3.468923    4.777921    2.129920
H     -3.363876    4.955297    0.279904
H     -1.392742    0.645874   -0.166410
H     -2.948456    0.472522    0.640625
H      3.538183    2.836718   -1.520282
H      2.654117    2.901816    0.005418
H     -1.742608   -3.079997    1.495124
H      1.906779    0.089009    1.606610
H     -2.969772    2.350686    1.928572
H      2.434633   -0.312026   -1.250133
H     -5.360961    3.162379    1.890393
H     -3.359088    2.647946   -1.071649
H     -3.644320   -1.421175    0.484753
H      6.926958    3.347555    1.621169
