38

C     -4.533949    1.850823   -0.149966
C     -3.800723    0.790700    0.644201
C      4.489859   -1.076599    0.590815
C      3.888347   -0.320028    1.574234
C      3.969836   -0.968774   -0.681861
C      2.812407    0.508101    1.292367
C      2.891689   -0.139536   -0.966600
C     -1.884974   -1.764702   -0.322580
C     -0.803390   -2.498114   -0.460697
C      2.291703    0.616290    0.018864
C     -1.949322   -0.583486    0.546853
C      0.411313   -2.144413    0.273837
C      1.139942    1.503916   -0.281473
C     -0.139852    0.724625   -0.512985
C     -0.571442   -0.008594    0.734528
O      1.446237   -2.840814    0.146721
O      1.371144    2.243570   -1.458941
O     -0.038823   -0.128286   -1.587086
O     -2.697041    0.402816   -0.109935
O      0.338372   -1.022759    1.092206
H     -3.806914    2.621401   -0.432428
H     -4.899424    1.365241   -1.081711
H     -5.390030    2.274541    0.414259
H     -4.449622   -0.050728    0.916862
H     -3.409921    1.283796    1.574392
H      5.333380   -1.725467    0.813145
H      4.280458   -0.387227    2.588687
H      4.428377   -1.557555   -1.478301
H      2.352723    1.098112    2.089869
H      2.497075   -0.068111   -1.972757
H     -2.768370   -2.084956   -0.905727
H     -0.795340   -3.379853   -1.123856
H     -2.410045   -0.837596    1.532993
H      0.951953    2.234017    0.506048
H     -0.910794    1.488801   -0.781228
H     -0.616186    0.711719    1.608193
H      1.319306    1.582418   -2.200059
H     -0.337959    0.286712   -2.450884
