66

C     -3.378179    2.755944    1.660875
C     -2.460637    1.484941    3.494705
C     -4.782157   -2.501072   -2.104381
C      4.532766    0.839914    3.186240
C      3.499077   -2.216047   -1.160531
C      0.253416    4.764864   -4.467911
C     -1.661621    1.594433   -0.223917
C     -2.184248   -0.428661    1.238677
C      1.756190    1.715137   -1.667490
C      2.333951   -2.287692    1.051995
C     -2.573122    1.793667    2.021534
C     -3.493626   -1.915241   -1.616122
C      4.310124    0.574165    1.745609
C     -1.741314    0.978952    1.104065
C      0.467295    2.197550   -1.710133
C     -0.261013    1.564283   -0.727642
C      1.777244    0.790106   -0.647810
C      1.152166   -3.226090    1.088477
C     -1.893170   -1.413290    0.201902
C      2.839302   -0.096722   -0.070775
C     -0.031075   -2.425389    1.587668
C     -0.107461    3.199094   -2.603769
C     -0.547797   -3.544002   -0.356500
C      2.495967   -1.558460   -0.241977
C     -1.045110   -2.578173    0.640754
O     -2.688732   -1.348455   -2.395427
O      5.234815    0.719171    0.921380
O     -1.289633    3.558697   -2.562374
O     -1.218693   -4.213961   -1.161038
O      1.276900   -1.584026   -0.960525
O      0.729971    3.782345   -3.559151
O     -3.127548   -1.970216   -0.285301
O      3.069423    0.160401    1.294774
O      0.572563    0.759687   -0.152383
O      0.816438   -3.555673   -0.217083
O     -1.201200   -3.100518    1.914078
H     -3.939371    3.301291    2.449519
H     -3.590754    3.103637    0.656797
H     -2.297329    2.447127    4.043118
H     -3.422528    1.092813    3.823592
H     -1.597728    0.850407    3.708364
H     -5.029996   -3.449443   -1.593591
H     -4.634006   -2.737476   -3.172882
H     -5.627442   -1.815256   -1.979609
H      5.301541    1.662908    3.233210
H      4.957701   -0.101099    3.634574
H      3.596405    1.136245    3.679005
H      4.222049   -2.779210   -0.564495
H      3.918741   -1.450039   -1.826909
H      2.996091   -2.979308   -1.825500
H      1.050951    5.461599   -4.768349
H     -0.575519    5.314087   -3.951972
H     -0.095523    4.234927   -5.361965
H     -2.380415    1.201109   -0.971849
H     -1.887789    2.694779   -0.142468
H     -3.294428   -0.409565    1.445691
H     -1.764074   -0.814745    2.216267
H      2.575654    2.007294   -2.306309
H      3.229070   -2.920413    1.278826
H      2.156528   -1.530685    1.840307
H     -0.691937    1.053601    1.555795
H      1.348030   -4.111630    1.734703
H     -1.419315   -0.992858   -0.707677
H      3.780242    0.091012   -0.625063
H      0.205811   -1.492194    2.144447
H      1.478069   -1.338577   -1.906071
