70

C     10.124049   -0.980093    0.323725
C     -6.308927    3.165535    2.282793
C      7.190622    3.201372    2.392584
C     -5.489780   -2.046135    3.912109
C     -3.594234   -0.965643   -4.450302
C     -4.388176   -1.844193   -3.518610
C     -2.726635    0.018534   -3.749626
C      5.851343   -0.855154   -0.223321
C      3.667810    0.174468    0.072937
C     -3.781552    0.700689    0.085292
C      7.216685   -0.927494   -0.067758
C     -4.622315    1.525276    0.813989
C      2.882934    1.120131    0.524692
C     -3.612192   -2.312926   -2.340374
C      5.788264    1.165549    0.973278
C     -4.189875   -1.118068    1.616797
C     -0.883394    0.183086   -2.075499
C     -1.264977   -1.098714    0.039348
C      5.101163    0.206192    0.300805
C     -3.580645   -0.595466    0.494614
C     -1.986696   -0.679998   -2.589169
C     -0.625817    0.073449   -0.613678
C     -2.646326   -1.429702   -0.351557
C      7.910755    0.047710    0.615151
C     -5.230758    1.023793    1.924019
C      7.173950    1.091972    1.131045
C     -5.025074   -0.278369    2.329622
C      1.428462    1.103915    0.302984
N     -2.948925   -1.155380   -1.697396
O      0.763176    2.046853    0.771230
O      9.284484    0.027915    0.803166
O     -6.071728    1.835606    2.659715
O      7.833112    2.091452    1.823498
O     -5.668963   -0.719506    3.456655
O      0.786635    0.111810   -0.385187
H      9.672833   -1.987129    0.449540
H     10.418627   -0.791320   -0.744247
H     11.061499   -0.975444    0.919751
H     -6.938728    3.710851    2.994509
H     -6.744573    3.219845    1.247450
H     -5.331376    3.711343    2.205230
H      6.501770    2.803759    3.184640
H      6.618013    3.755970    1.645776
H      7.961173    3.796628    2.918563
H     -4.376486   -2.206697    3.942580
H     -5.863745   -2.147950    4.958848
H     -5.928898   -2.773694    3.228950
H     -3.036229   -1.534707   -5.221731
H     -4.358689   -0.371220   -5.032868
H     -5.338511   -1.402567   -3.194158
H     -4.667968   -2.759639   -4.117748
H     -3.313578    0.884660   -3.341721
H     -2.000032    0.439339   -4.474238
H      5.338955   -1.641823   -0.767180
H      3.182483   -0.624958   -0.476398
H     -3.300385    1.094456   -0.797152
H      7.799254   -1.756456   -0.477420
H     -4.755869    2.543964    0.458762
H      3.287186    1.939074    1.073944
H     -4.289499   -2.811739   -1.633368
H     -2.782848   -3.004055   -2.592380
H      5.248960    1.998020    1.391504
H     -4.003384   -2.127026    1.893464
H     -1.134063    1.236842   -2.342189
H      0.062645   -0.030697   -2.616082
H     -1.263659   -0.979304    1.165767
H     -0.644823   -2.035566   -0.104113
H     -1.505156   -1.571359   -3.093346
H     -1.012810    0.990310   -0.119491
H     -2.918543   -2.500176   -0.121021
