68

C      9.129802   -0.425797   -0.526580
C      9.141039    2.124956   -0.240285
C      4.435106    1.512360    0.672890
C     -3.825176    2.867748   -0.022784
C      6.364852   -0.376527   -1.040958
C      7.096551    0.867956   -0.765407
C      5.338690   -0.807625   -0.066451
C      2.973440   -0.217239   -0.228026
C     -7.185621   -1.655888   -0.269884
C     -6.647327    0.312730    0.956334
C      1.794075    0.623625   -0.057373
C     -1.686621   -1.370024    1.552161
C     -8.478477   -1.210458   -0.419068
C     -7.969923    0.741566    0.789068
C     -0.627871   -1.058412    2.382886
C     -0.436894   -0.393001   -0.253518
C     -4.848421   -1.384620    0.587424
C      8.417651    0.874336   -0.516346
C      4.231280    0.168573    0.107710
C     -6.267784   -0.887452    0.422010
C      0.625221   -0.078064    0.568184
C     -1.588456   -1.034490    0.230183
C     -8.890162   -0.007098    0.106917
C      0.517361   -0.416568    1.885139
C     -2.676271   -1.306590   -0.691516
C     -2.477452   -1.936760   -1.841832
C     -3.743273   -2.055784   -2.522707
C     -4.215623    0.583912   -0.755157
C     -4.079447   -0.908495   -0.614158
O    -10.214311    0.421156   -0.061203
O      1.536866   -0.136163    2.759743
O     -1.226658   -2.411627   -2.316970
O     -3.932639   -2.604212   -3.656563
O     -4.847887    1.022761   -1.738666
O     -3.672307    1.469158    0.151792
O     -4.714542   -1.477360   -1.742861
H      8.634905   -1.134326    0.197137
H     10.191412   -0.293027   -0.202450
H      9.106725   -0.818806   -1.557955
H     10.118265    2.114611   -0.780546
H      8.547360    2.992891   -0.585984
H      9.397304    2.230772    0.853073
H      5.441476    1.559402    1.186683
H      4.470430    2.324509   -0.105551
H      3.726782    1.797310    1.484218
H     -3.451738    3.435308    0.840619
H     -3.274919    3.194182   -0.906610
H     -4.924191    3.078886   -0.177431
H      5.927061   -0.271382   -2.085124
H      7.139112   -1.186123   -1.194102
H      6.634870    1.836694   -0.769917
H      5.829850   -1.008430    0.941825
H      4.914764   -1.801092   -0.359293
H      2.885863   -1.237657   -0.653565
H     -6.827923   -2.598082   -0.671311
H     -5.961277    0.951802    1.515069
H      1.474798    1.017205   -1.069838
H      1.999783    1.546260    0.524022
H     -2.556483   -1.890568    1.966882
H     -9.167894   -1.837332   -0.965712
H     -8.295975    1.694577    1.205644
H     -0.704833   -1.322308    3.426993
H     -0.385917   -0.139615   -1.306471
H     -4.530982   -0.909043    1.540983
H     -4.867653   -2.470223    0.730175
H    -10.479110    1.299366    0.333196
H      2.392720    0.295909    2.543890
H     -0.753374   -1.882257   -3.060202
