68

C      9.235621    0.020879    1.422619
C      8.904634    1.324433   -0.808770
C      4.441479   -0.163537    1.439952
C     -6.379085   -1.604878   -3.509395
C      6.390202    0.156759   -1.105425
C      7.211111   -0.168884    0.053200
C      5.117904    0.862801   -0.820800
C      2.963078   -0.120828   -0.469276
C     -1.842487    1.282450    0.157414
C      1.855376   -0.782670    0.239621
C     -5.559145    1.155332   -0.094452
C     -6.410017   -0.424128    1.437041
C     -6.650884    1.993240    0.203785
C     -7.471511    0.400450    1.721188
C     -0.859630    1.742765    1.014125
C     -0.440336   -0.440467   -0.601000
C     -2.707527   -0.288095   -1.552985
C      8.415790    0.372951    0.223940
C      4.149830    0.178891    0.033721
C     -1.664304    0.198485   -0.659078
C     -5.413807   -0.056043    0.506337
C      0.585100   -0.016414    0.246888
C     -7.612684    1.627182    1.109189
C      0.342307    1.069232    1.032976
C     -4.323191   -0.998099    0.252385
C     -3.773214   -1.692397    1.267496
C     -2.733131   -2.567297    0.768371
C     -4.538078   -1.839568   -1.985192
C     -3.588084   -1.372835   -0.947820
O     -8.689294    2.468080    1.394360
O      1.336938    1.519742    1.886357
O     -4.137723   -1.594222    2.603342
O     -1.985358   -3.365962    1.404161
O     -4.420089   -3.029960   -2.387120
O     -5.525918   -1.049407   -2.521210
O     -2.677181   -2.389366   -0.579775
H      9.975182    0.837467    1.555019
H      9.772811   -0.907125    1.215224
H      8.581599   -0.046258    2.322202
H      9.883777    1.775406   -0.517734
H      9.024922    0.742052   -1.742988
H      8.183296    2.151428   -0.880482
H      4.721847   -1.221645    1.608684
H      5.297585    0.463637    1.820806
H      3.603067    0.098406    2.144594
H     -5.808766   -2.240883   -4.219280
H     -6.892145   -0.806543   -4.097627
H     -7.168581   -2.260318   -3.065308
H      6.148072   -0.759992   -1.703299
H      6.981583    0.802905   -1.814466
H      6.894906   -0.871275    0.806481
H      4.659996    1.154695   -1.819981
H      5.383776    1.877936   -0.386124
H      2.768846    0.143161   -1.519158
H     -2.762560    1.842815    0.178129
H      2.140776   -0.978138    1.287187
H      1.687783   -1.814497   -0.194054
H     -4.831712    1.493504   -0.821907
H     -6.299141   -1.386382    1.905439
H     -6.716978    2.944610   -0.302185
H     -8.235155    0.122354    2.432360
H     -0.969248    2.592632    1.668693
H     -0.254490   -1.302867   -1.230133
H     -2.161439   -0.856633   -2.393591
H     -3.294078    0.453665   -2.076378
H     -9.388378    2.186914    2.060417
H      1.225173    2.319135    2.497215
H     -3.699017   -0.958785    3.256480
