68

C     -7.523531   -2.850786    2.482309
C     -7.974798   -0.374441    1.950652
C      9.379847   -0.708597   -0.324818
C      9.007298   -0.747402    2.210368
C     -2.264567    3.889457   -0.052013
C     -5.768235   -1.343453    1.707535
C     -3.161018   -0.479466   -2.492757
C     -5.186519   -0.072192    1.247713
C      2.330306    1.422380    0.156421
C      2.939326   -0.390855   -1.216641
C      3.358698    1.096212    1.025006
C      3.964665   -0.720055   -0.355876
C     -4.533507   -0.431685   -2.454675
C      7.161540   -1.067168    0.607246
C      6.195191   -1.217124    1.727439
C     -3.117948   -0.265517   -0.137948
C     -0.953705   -0.472677   -1.431408
C     -7.032592   -1.509384    2.025720
C      8.462217   -0.850036    0.834840
C     -2.429550   -0.393971   -1.302496
C      2.096738    0.697789   -0.969590
C     -4.513071   -0.214509   -0.075659
C      4.214817    0.003088    0.789658
C     -5.223100   -0.298272   -1.242139
C      0.989314    0.971063   -1.909207
C      1.238363    1.185276   -3.214630
C     -0.003385    1.435844   -3.916479
C     -0.997179    1.895596   -0.730870
C     -0.458997    0.954281   -1.746519
O     -6.603474   -0.253345   -1.241199
O      2.537318    1.157800   -3.763331
O     -0.088228    1.668109   -5.164710
O     -0.779668    1.726333    0.480011
O     -1.765380    3.006468   -1.067810
O      5.210969   -0.267253    1.689554
O     -0.983941    1.365900   -2.976929
H     -7.012864   -3.672820    1.955417
H     -8.615255   -2.957246    2.254944
H     -7.419657   -2.918302    3.591753
H     -8.906027   -0.647640    2.506475
H     -8.259437   -0.145187    0.907544
H     -7.563049    0.567915    2.413550
H      8.868022   -1.084455   -1.256185
H     10.330893   -1.235822   -0.199204
H      9.520772    0.395556   -0.484129
H      8.411629   -0.040691    2.853694
H      9.110502   -1.737080    2.708607
H     10.033899   -0.317060    2.168091
H     -1.502675    4.620567    0.253749
H     -2.675646    3.280605    0.765369
H     -3.085249    4.466908   -0.525383
H     -5.081447   -2.199307    1.782971
H     -2.630517   -0.581435   -3.422354
H     -4.416115    0.258322    1.985824
H     -5.962759    0.737588    1.194999
H      1.716235    2.305940    0.381520
H      2.789010   -0.982752   -2.089773
H      3.542133    1.673004    1.920997
H      4.601245   -1.580617   -0.546814
H     -5.090731   -0.497862   -3.375286
H      6.813771   -1.132794   -0.400825
H      5.768360   -2.263542    1.638263
H      6.714411   -1.154395    2.715689
H     -2.593807   -0.209386    0.798076
H     -0.498422   -0.745262   -0.466931
H     -0.719062   -1.135475   -2.266987
H     -7.168760   -0.309671   -2.057913
H      3.256384    1.694985   -3.309503
