68

C      8.225051    0.513384   -1.156445
C      9.889655    1.405388    0.575835
C      3.215132    0.061090    1.266366
C     -6.027217   -3.460267    2.450246
C      6.176501    0.604486    0.799850
C      7.541058    1.025631    1.151221
C      5.183101    1.739035    1.020966
C     -4.664076    1.539825   -1.589282
C     -5.729367    1.156787    0.477563
C     -1.920804   -0.341519   -1.807643
C     -1.513444   -1.892782   -0.081571
C     -4.311165    2.797304   -1.161840
C     -5.373748    2.418971    0.902232
C     -0.690744    0.278567   -1.539535
C     -0.313252   -1.288060    0.178805
C      3.200289    1.849935   -0.355369
C      1.875243    1.493592   -0.896996
C     -5.759955   -0.647654   -1.258168
C      8.507533    0.983108    0.230161
C      3.821891    1.224286    0.612898
C     -5.384505    0.664505   -0.794741
C     -2.357381   -1.413002   -1.106924
C     -4.657380    3.261624    0.088077
C      0.125839   -0.199002   -0.534696
C     -3.644134   -2.100975   -1.304452
C     -3.567539   -3.321720   -1.905048
C     -4.881679   -3.869996   -2.029180
C     -5.133218   -2.152824    0.580638
C     -5.006420   -1.872540   -0.927551
O     -4.277230    4.544677    0.478983
O     -2.408809   -3.969780   -2.345200
O     -5.159038   -5.016927   -2.557107
O     -4.505635   -1.402516    1.332146
O     -5.897924   -3.176324    1.049628
O      1.352800    0.393734   -0.243919
O     -5.745833   -2.969417   -1.497677
H      7.508690    1.177077   -1.685547
H      7.793772   -0.514482   -1.146333
H      9.152398    0.499984   -1.758843
H     10.255756    2.210917   -0.110514
H     10.600359    0.550849    0.437038
H      9.964834    1.693485    1.648514
H      2.301329    0.322899    1.852311
H      3.947539   -0.288362    2.057725
H      3.094503   -0.828993    0.618267
H     -7.089200   -3.509625    2.739436
H     -5.566702   -2.627946    3.033980
H     -5.517623   -4.407035    2.716568
H      5.900408   -0.225840    1.489484
H      6.159637    0.284846   -0.259184
H      7.795943    1.376853    2.152857
H      5.467722    2.619119    0.438036
H      5.143177    1.942635    2.098647
H     -4.363976    1.291456   -2.602092
H     -6.308607    0.528366    1.131287
H     -2.475140    0.075053   -2.633426
H     -1.883478   -2.746890    0.461358
H     -3.735707    3.465117   -1.820777
H     -5.668937    2.746905    1.897819
H     -0.355321    1.129975   -2.102132
H      0.308575   -1.678017    0.966566
H      3.693242    2.714572   -0.810811
H      1.203473    2.367255   -0.637952
H      1.876542    1.450780   -1.996363
H     -5.983893   -0.621262   -2.378530
H     -6.821944   -0.829782   -0.847116
H     -4.832613    5.375968    0.330784
H     -1.748352   -4.406503   -1.708250
