68

C      7.359729    1.630016    0.863674
C      7.064151    2.453683    3.279098
C      4.216816   -0.923121   -1.413770
C     -2.312407   -2.252094    2.447870
C      4.556037    1.306306    0.639491
C      5.146017    1.809681    1.919370
C      3.898715   -0.022571    0.928580
C      1.985959   -0.939623   -0.320667
C     -4.472426    1.724423   -0.556904
C     -4.463416    0.801866    1.595809
C      1.349154   -1.559693   -1.503745
C     -2.333303    0.164433   -2.587249
C     -3.916162    2.903455   -0.085666
C     -3.916141    1.960050    2.067887
C     -1.151159    0.856732   -2.871422
C     -1.097306   -1.563438   -1.610470
C     -5.355434   -0.577216   -0.267097
C      6.473860    1.957757    2.010628
C      3.287318   -0.645660   -0.272399
C     -4.766518    0.640573    0.237473
C      0.088964   -0.894299   -1.883683
C     -2.346689   -1.033785   -1.964732
C     -3.626558    3.040077    1.251171
C      0.071215    0.310221   -2.510029
C     -3.561365   -1.776238   -1.654558
C     -3.831438   -2.844437   -2.464972
C     -5.056144   -3.467031   -2.030562
C     -3.921699   -2.336725    0.661510
C     -4.560000   -1.763185   -0.618928
O     -3.067441    4.204999    1.776542
O      1.227532    1.045423   -2.816800
O     -3.046380   -3.269070   -3.544004
O     -5.649561   -4.480285   -2.511683
O     -4.356377   -3.392813    1.150292
O     -2.871042   -1.685977    1.265565
O     -5.509972   -2.763327   -0.962128
H      7.170054    0.553996    0.577427
H      7.194548    2.311025   -0.000227
H      8.405780    1.678004    1.185378
H      7.383879    3.525553    3.143717
H      6.350679    2.404353    4.131426
H      7.980081    1.853042    3.528713
H      3.937110   -1.793573   -2.017514
H      5.221579   -1.217884   -0.966705
H      4.322691    0.023054   -1.979843
H     -3.167512   -2.506956    3.141384
H     -1.886606   -3.238871    2.151231
H     -1.596547   -1.587332    2.929460
H      5.360909    1.237343   -0.094713
H      3.816310    2.043011    0.266818
H      4.499947    2.048242    2.746105
H      4.589477   -0.682577    1.458410
H      3.056827    0.220394    1.638117
H      1.411836   -0.687919    0.585246
H     -4.691372    1.725505   -1.616524
H     -4.680786   -0.000514    2.279800
H      1.176755   -2.650117   -1.301824
H      2.024586   -1.426541   -2.395141
H     -3.219250    0.676198   -2.940009
H     -3.694167    3.746280   -0.744129
H     -3.679303    2.084615    3.129113
H     -1.150732    1.808021   -3.370328
H     -1.112232   -2.539126   -1.107584
H     -6.103962   -0.926581    0.517739
H     -6.028819   -0.349359   -1.139280
H     -3.699898    4.950083    2.107313
H      2.109035    0.650136   -2.558747
H     -2.837425   -2.550611   -4.236460
