94

C     10.238689   -0.526687    2.283764
C     11.288460   -0.838735   -0.033504
C    -11.545401    0.472201    0.476749
C    -10.739945   -1.430302   -1.033492
C      6.540119   -0.361097    1.649199
C     -6.070634    0.424472    1.565550
C      0.664704    3.400016   -1.646062
C      8.874743    1.737183    1.322244
C     -8.923869    0.889962    1.350389
C      9.763655    0.971264    0.437085
C     -9.218168   -0.174692    0.360942
C      7.506226    1.811472    0.725975
C     -7.956211    1.910955    0.754611
C      6.445310    0.094541   -0.699682
C     -6.326058    1.073005   -0.820468
C      1.985774   -0.808686   -2.755031
C      5.760304   -1.192152   -0.931740
C     -5.209920    0.400341   -1.443489
C     -2.650055   -2.050637    0.875499
C      3.149802   -0.644721   -3.517486
C     -3.909308   -2.502452    0.550435
C      3.271383   -1.211720   -0.827911
C     -3.061733   -0.029652   -0.256073
C      0.784865   -1.263191   -0.587514
C     10.404554   -0.090903    0.882288
C    -10.451230   -0.364159   -0.043791
C      6.833818    0.530327    0.503729
C     -6.712106    1.105430    0.412799
C      1.998507   -1.091841   -1.411240
C      4.428177   -1.054193   -1.561429
C     -4.356708   -0.441390   -0.616026
C     -2.196323   -0.786145    0.470799
C      4.385234   -0.769728   -2.909287
C     -4.760600   -1.712534   -0.187846
C     -0.862474   -0.334195    0.874553
C     -0.519505   -0.301494    2.173199
C      0.839093    0.185154    2.309393
C      0.140364    1.096514   -0.902151
C      0.334488    0.033596    0.102193
O      5.574757   -0.619520   -3.605812
O     -6.045362   -2.133970   -0.539142
O     -1.374363   -0.688482    3.224027
O      1.464417    0.331176    3.417434
O     -0.582433    0.951542   -1.900043
O      0.783807    2.320087   -0.744833
O      1.274030    0.438443    1.045709
H     10.395361    0.290989    3.025936
H      9.232587   -0.939411    2.429608
H     10.935415   -1.374810    2.502418
H     10.748126   -1.741784   -0.407808
H     12.196140   -1.218683    0.486213
H     11.616839   -0.272783   -0.908766
H    -12.491935    0.346895   -0.103343
H    -11.263228    1.539562    0.357777
H    -11.768716    0.260008    1.546122
H    -11.188779   -0.969979   -1.952493
H     -9.820451   -1.936271   -1.374563
H    -11.402701   -2.196107   -0.581895
H      5.450512   -0.556851    1.757751
H      6.948466    0.058860    2.611835
H      7.049869   -1.330486    1.461913
H     -6.474399   -0.593151    1.724490
H     -6.390727    0.967578    2.530765
H     -4.989537    0.458192    1.597980
H     -0.290669    3.431398   -2.178783
H      0.833735    4.330790   -1.039503
H      1.531156    3.394794   -2.370758
H      8.809439    1.355054    2.349238
H      9.259140    2.791147    1.358500
H     -8.374540    0.377424    2.193977
H     -9.822171    1.353718    1.782022
H      9.862416    1.324626   -0.593842
H     -8.404202   -0.778228   -0.010126
H      7.587870    2.434763   -0.188466
H      6.879037    2.422087    1.439366
H     -8.434177    2.293253   -0.150004
H     -7.729802    2.683464    1.509017
H      6.652051    0.736161   -1.546596
H     -6.973631    1.674474   -1.526924
H      1.015022   -0.716161   -3.260195
H      5.610633   -1.679701    0.061114
H      6.435523   -1.852997   -1.512035
H     -4.527278    1.172549   -1.928251
H     -5.557935   -0.211690   -2.349730
H     -1.960488   -2.650833    1.454844
H      3.091569   -0.422329   -4.572795
H     -4.260741   -3.484532    0.864347
H      3.293104   -1.435788    0.235042
H     -2.800864    0.977270   -0.586176
H      0.932790   -2.030775    0.217421
H     -0.091847   -1.606382   -1.170507
H      5.637661   -0.414038   -4.578806
H     -6.353651   -3.060949   -0.232445
H     -1.894868    0.045258    3.724626
