68

C      7.241952    2.037689    0.372218
C      8.447715    1.106290   -1.671458
C      4.012225   -0.885380    2.855273
C     -3.673321    1.255506    2.857066
C      5.297957   -0.212232    0.153591
C      6.440146    0.007685   -0.749105
C      5.410742   -1.557392    0.835352
C     -6.538446    0.834378   -2.249336
C     -6.494129    0.241061    0.064570
C     -1.658895   -1.905726   -0.294024
C     -0.098096   -0.232203    0.182638
C     -7.839037    1.263108   -2.098110
C     -7.812703    0.682055    0.192428
C     -0.882171   -2.814804    0.384669
C      0.697663   -1.117003    0.865647
C      3.469130   -2.829692    1.549924
C      2.288151   -3.241005    2.314604
C     -4.455129   -0.168393   -1.234812
C      7.318206    0.994798   -0.677677
C      4.253991   -1.805179    1.748193
C     -5.866271    0.320651   -1.156243
C     -1.313955   -0.590246   -0.427222
C     -8.502883    1.199325   -0.888060
C      0.322068   -2.428227    0.981371
C     -2.093468    0.439913   -1.096617
C     -1.485202    1.232871   -2.008906
C     -2.449254    2.176627   -2.542899
C     -3.650741    1.479157    0.409436
C     -3.471686    0.920798   -0.980289
O     -9.809021    1.626253   -0.721090
O     -0.145573    1.180054   -2.399478
O     -2.169849    3.056386   -3.424645
O     -3.946261    2.688384    0.506496
O     -3.503731    0.723825    1.551781
O      1.088695   -3.322415    1.650970
O     -3.659952    1.938539   -1.934573
H      7.789971    1.674865    1.271488
H      7.688619    2.995872    0.026112
H      6.214353    2.253142    0.661041
H      8.750868    0.065073   -1.914417
H      8.081349    1.619069   -2.564733
H      9.289079    1.643613   -1.236273
H      5.031179   -0.520808    3.194007
H      3.557637   -1.290193    3.755782
H      3.522171    0.048494    2.486717
H     -3.770462    0.415627    3.560110
H     -4.633873    1.842661    2.921743
H     -2.877778    1.956302    3.115847
H      4.390964   -0.298994   -0.516817
H      5.067612    0.600546    0.841092
H      6.580667   -0.718050   -1.565837
H      6.317871   -1.522360    1.472221
H      5.488196   -2.319409    0.057513
H     -6.022375    0.881454   -3.181999
H     -6.015188   -0.154817    0.952865
H     -2.567160   -2.276124   -0.751937
H      0.223441    0.786673    0.109029
H     -8.387426    1.671357   -2.947489
H     -8.295001    0.616463    1.146176
H     -1.169935   -3.850974    0.482061
H      1.625285   -0.822309    1.331290
H      3.732230   -3.475747    0.686441
H      2.512361   -4.300652    2.676444
H      2.184767   -2.691493    3.284236
H     -4.319355   -0.930203   -0.435519
H     -4.301604   -0.610309   -2.221212
H    -10.595432    0.983788   -0.857938
H      0.138098    1.431988   -3.332502
