81

C      7.630476    2.164024    1.332876
C      9.701684    1.110889    0.300679
C     -6.496683   -2.200434    0.500969
C     -5.982150   -3.186015   -1.787716
C     -7.991070    2.603173    1.383724
C     -6.649270    4.598416    2.269263
C      0.006841   -3.584520   -1.529388
C      7.820116   -0.269060    1.063409
C     -4.223901   -2.282877   -0.351464
C     -1.376026    1.650808   -0.406494
C      6.485349   -0.473450    1.662509
C     -3.655334   -1.646656    0.851050
C      3.780405   -2.270515   -1.074239
C      4.729062   -3.063863   -0.416942
C     -2.752388    1.755987   -0.351658
C     -5.672552    2.976723    0.694036
C     -5.764912    1.769730   -0.139694
C     -1.481269   -0.550550    0.349354
C      4.626456   -0.418282    0.068664
C      0.750141    0.418377   -0.117466
C      8.354691    0.933628    0.907361
C     -5.483419   -2.534183   -0.521936
C     -6.721670    3.366504    1.409921
C     -0.698974    0.502744   -0.060704
C      5.555403   -1.161141    0.718701
C     -2.862191   -0.458864    0.409115
C      3.701180   -0.930659   -0.851018
C      5.623591   -2.497143    0.488472
C     -3.521316    0.708824    0.055748
C      2.718503   -0.028546   -1.474250
C      3.169690    1.074597   -2.099204
C      2.056271    1.824302   -2.650790
C      0.565551   -1.209338   -1.916485
C      1.275220    0.015256   -1.514494
O      6.562278   -3.268967    1.143570
O      4.521315    1.456213   -2.208418
O      2.129267    2.930378   -3.306890
O     -0.170013   -1.241821   -2.939266
O      0.659604   -2.382713   -1.202529
O     -4.892516    0.745254    0.132246
O      0.941075    1.111548   -2.326006
H      7.597304    2.214833    2.440982
H      6.605367    2.116059    0.877673
H      8.088163    3.072181    0.892580
H     10.465649    1.313367    1.073259
H      9.667307    1.991088   -0.367157
H      9.999956    0.184219   -0.270426
H     -6.054832   -2.455681    1.502410
H     -6.796146   -1.146574    0.419372
H     -7.401516   -2.859868    0.373056
H     -7.070016   -3.218457   -1.818844
H     -5.649170   -2.557516   -2.643222
H     -5.542938   -4.184133   -1.935335
H     -8.368381    2.647378    0.330382
H     -7.830159    1.560584    1.711419
H     -8.743749    3.059504    2.026151
H     -6.817040    5.475327    1.608087
H     -5.660542    4.635371    2.770277
H     -7.466775    4.597830    3.014378
H     -0.377459   -4.001403   -0.562117
H      0.717769   -4.351052   -1.912542
H     -0.872746   -3.452758   -2.180069
H      8.395519   -1.124648    0.733440
H     -3.544078   -2.576566   -1.183107
H     -0.832046    2.506172   -0.733052
H      6.063231    0.496717    1.978561
H      6.560760   -1.076398    2.609759
H     -4.421803   -1.301965    1.558273
H     -2.967038   -2.359410    1.356652
H      3.156033   -2.773754   -1.762253
H      4.807274   -4.117251   -0.576675
H     -3.226296    2.698212   -0.658856
H     -4.786391    3.567932    0.755504
H     -6.817915    1.361547   -0.043188
H     -5.724095    2.111317   -1.210543
H     -1.070862   -1.501976    0.656069
H      4.577628    0.651968    0.259119
H      1.170443    1.436921    0.046973
H      1.205920   -0.248047    0.644801
H      7.212153   -2.892240    1.802295
H      4.783000    2.443388   -2.057111
