94

C     -6.092973   -1.182043    4.478726
C     -7.988062   -2.421136    3.275517
C      7.551500    3.255203    0.848266
C      8.959712    3.096216   -1.231575
C     -7.919183    2.410530   -0.622140
C      7.926186   -1.071796    2.128109
C     -3.246037   -2.365791    0.377138
C     -7.442374   -1.124854    0.899921
C      9.885582    1.243009    1.997224
C     -6.621593   -0.814808    2.073042
C      9.647479    1.900884    0.731873
C     -8.138503    0.086434    0.356014
C      8.825898    1.120171    3.036298
C     -5.959438    1.051286   -0.385253
C     -2.851254    0.558917   -4.192372
C     -5.051723    2.092893   -0.914541
C      2.216936    0.115306   -1.665343
C      2.234759   -1.866903   -0.395980
C      3.223780    0.643283   -0.863618
C      3.238357   -1.355949    0.412904
C     -4.180066    0.965548   -4.379538
C      6.401588    0.738630    2.579683
C      5.344336   -0.187071    2.077820
C     -2.966670    1.155934   -1.911852
C     -0.819482    0.159197   -2.809369
C     -6.876179   -1.435653    3.236409
C      8.753880    2.689974    0.236715
C     -7.254089    1.127062   -0.226136
C      7.650869    0.315188    2.602651
C     -2.235339    0.649194   -2.963763
C      1.709448   -1.141612   -1.443906
C     -4.288143    1.565139   -2.071888
C      3.751539   -0.088585    0.192497
C     -4.888932    1.469158   -3.299132
C      0.609755   -1.724204   -2.231956
C      0.720216   -2.868520   -2.892805
C     -0.539523   -3.131794   -3.559336
C     -1.463100   -1.390891   -1.001555
C     -0.782430   -1.258122   -2.341601
O     -6.205737    1.884964   -3.408727
O      1.850429   -3.664837   -2.930214
O     -0.752294   -4.137576   -4.258011
O     -1.003846   -0.749979   -0.047017
O     -2.556769   -2.199764   -0.859862
O      4.754966    0.470261    0.967469
O     -1.406850   -2.093937   -3.274539
H     -6.727775   -0.625695    5.232166
H     -5.157748   -0.634376    4.254780
H     -5.768177   -2.149839    4.929897
H     -8.963303   -1.998488    2.955051
H     -7.719178   -3.355861    2.747220
H     -8.151732   -2.681611    4.363141
H      7.567691    3.440447    1.918369
H      6.655697    2.664025    0.510301
H      7.377356    4.277244    0.363439
H      9.725317    3.886687   -1.206584
H      9.358550    2.235307   -1.806112
H      8.035488    3.517837   -1.646270
H     -7.341541    3.306627   -0.385860
H     -8.868676    2.521337   -0.010053
H     -8.258428    2.313566   -1.647866
H      7.328905   -1.828118    2.690793
H      8.986989   -1.367879    2.295787
H      7.699626   -1.191057    1.055775
H     -4.132155   -3.004432    0.227004
H     -3.506128   -1.377607    0.816862
H     -2.568795   -2.884498    1.087971
H     -8.235026   -1.886164    1.080977
H     -6.838972   -1.563183    0.058941
H     10.191344    0.153633    1.755166
H     10.849162    1.622681    2.489915
H     -5.827622   -0.106790    2.054639
H     10.475856    1.650032   -0.034790
H     -8.858329    0.522225    1.087539
H     -8.784246   -0.297322   -0.493708
H      9.243786    0.496706    3.917813
H      8.535560    2.096738    3.488620
H     -5.466489    0.102508   -0.134067
H     -2.276131    0.163518   -5.020605
H     -5.643411    2.943163   -1.319220
H     -4.380019    2.516470   -0.116844
H      1.849149    0.717524   -2.482704
H      1.855531   -2.866609   -0.194649
H      3.638490    1.635684   -1.018353
H      3.640803   -1.951176    1.241654
H     -4.662403    0.895391   -5.347944
H      6.141423    1.740258    2.916854
H      4.623558   -0.428764    2.879633
H      5.736283   -1.144142    1.709197
H     -2.536560    1.259854   -0.927849
H     -0.410240    0.804383   -1.983460
H     -0.218623    0.359402   -3.702611
H     -6.726281    1.921911   -4.276128
H      2.784803   -3.323490   -2.700076
