68

C      8.320484   -2.640911   -0.646893
C      8.377361   -0.786507    1.145549
C     -8.715736   -0.602232    0.760829
C     -6.379487   -1.612574    0.471343
C     -0.550136    3.664942   -1.033003
C      6.292658   -1.769808    0.327889
C     -6.943448    0.760282   -0.104233
C      2.622118    1.164101   -1.088956
C      5.510794   -0.887940    1.220983
C     -5.728773    1.364674   -0.598869
C     -2.264694   -1.068445   -0.852797
C      3.924359    1.590133   -1.147607
C     -3.280319   -1.216716   -1.785665
C      3.181849   -0.528174    0.427729
C     -3.524632    0.636648    0.261836
C      0.813741   -0.388640   -0.233203
C      7.601956   -1.702989    0.299865
C     -7.255015   -0.429775    0.334221
C      2.209101    0.109933   -0.314335
C      4.524135   -0.130261    0.399699
C     -4.560117    0.496804   -0.677004
C     -2.393418   -0.145444    0.161002
C      4.883213    0.934231   -0.394116
C     -4.407116   -0.437411   -1.686123
C     -1.272908    0.020934    1.112362
C     -1.442109   -0.047133    2.412657
C     -0.160187    0.147246    3.079460
C      0.103691    1.853681    0.469382
C      0.115894    0.373381    0.857955
O      6.219685    1.329368   -0.418876
O     -5.412359   -0.598793   -2.626990
O     -2.666494   -0.273785    3.075360
O      0.045584    0.147441    4.347188
O      0.678307    2.692280    1.194518
O     -0.538612    2.284627   -0.677390
O      0.761552    0.326302    2.078770
H      8.136309   -2.292625   -1.702644
H      9.385694   -2.706871   -0.408754
H      7.838461   -3.633803   -0.575122
H      9.433577   -1.187145    1.206858
H      8.038179   -0.793403    2.217682
H      8.396686    0.231484    0.758737
H     -8.815209   -0.004107    1.671138
H     -8.958520   -1.652403    0.903479
H     -9.314796   -0.121724   -0.040009
H     -5.370639   -1.409435    0.821431
H     -6.860357   -2.324517    1.204086
H     -6.321780   -2.159343   -0.495742
H     -0.175703    4.238662   -0.173481
H      0.118452    3.802150   -1.901114
H     -1.589222    3.954660   -1.258542
H      5.745293   -2.463094   -0.291338
H     -7.817874    1.504284   -0.104590
H      1.875184    1.685486   -1.694088
H      4.953741   -1.574793    1.921385
H      6.150149   -0.201644    1.790616
H     -5.928866    1.828078   -1.617176
H     -5.469762    2.229188    0.096461
H     -1.417034   -1.722716   -0.995620
H      4.232842    2.416339   -1.756949
H     -3.217817   -1.929715   -2.592453
H      2.931190   -1.361451    1.058150
H     -3.648351    1.366874    1.045930
H      0.864467   -1.475080   -0.043767
H      0.328030   -0.159593   -1.206865
H      6.477423    2.115204   -1.009596
H     -5.336348   -1.276543   -3.384436
H     -3.354320    0.448127    3.226374
