113

C     -5.700173    0.219293    1.393448
C     -4.805952    1.176052    0.643650
C      6.413771    0.532824   -0.643019
C      5.636420    1.785074   -0.875364
C     -6.893539   -0.212010    0.584020
C      7.521947    0.791086    0.410029
C     -4.309109    0.462170   -0.609716
C      4.562229    1.562026   -1.891200
C     -7.775555    0.920059    0.166259
C      8.246492   -0.501569    0.551111
C     -3.429885    1.310443   -1.447682
C      3.603201    0.501846   -1.371078
C     -8.315734    1.631444    1.378934
C      9.322185   -0.631173    1.549281
C     -2.880558    0.661887   -2.627448
C      2.487670    0.266601   -2.362467
C      0.695058   -5.875680   -1.648274
C     -9.223920    2.770419    1.055067
C     10.523945    0.214353    1.525689
C     -0.585478   -5.574335   -2.074968
C      1.218456   -5.180740   -0.584831
C     -1.799723   -0.324913   -2.653442
C      1.553314   -0.774672   -1.856865
C    -12.190849   -0.684378    1.754707
C     13.594807    3.414751    0.562778
C    -10.471465    2.395547    0.318646
C     10.413892    1.674179    1.748055
C    -11.322442    0.113153    1.003081
C     12.340951    2.811535    0.559795
C     -1.306548   -4.589781   -1.430192
C      0.485713   -4.200240    0.048100
C     -1.751760   -1.542151   -1.822656
C    -13.102691   -0.092942    2.578907
C     14.239540    3.498331    1.772490
C      0.919348   -0.368668   -0.525213
C    -12.325169    2.019700    1.940165
C     12.467381    2.435311    2.890911
C    -11.360776    1.481885    1.071058
C     11.773565    2.322640    1.711538
C     -0.812366   -3.868431   -0.356699
C     -1.374143   -1.410328   -0.405944
C     -1.613509   -2.837802    0.277218
C     -3.023713   -3.094764    0.488153
N    -13.150311    1.249443    2.654063
N     13.703528    3.025978    2.914354
N      0.012552   -1.263888   -0.068398
O     -3.549030   -3.056908    1.664304
O     -3.969111   -3.403935   -0.489692
H     -6.033334    0.639649    2.362434
H     -5.108863   -0.687518    1.632864
H     -3.902001    1.323832    1.285938
H     -5.235604    2.156073    0.458189
H      6.925591    0.221924   -1.551376
H      5.836606   -0.305357   -0.232789
H      6.283028    2.615573   -1.258804
H      5.161357    2.161310    0.071416
H     -7.526625   -0.876010    1.241890
H     -6.608844   -0.844498   -0.278816
H      8.123149    1.623807   -0.024078
H      7.100838    1.127036    1.355511
H     -5.290694    0.367772   -1.227932
H     -4.062991   -0.547182   -0.384859
H      3.993141    2.465973   -2.127038
H      5.006328    1.158884   -2.844797
H     -7.260540    1.629080   -0.528648
H     -8.623366    0.530387   -0.414058
H      7.481020   -1.346168    0.671209
H      8.705845   -0.797485   -0.460550
H     -2.645114    1.848075   -0.847132
H     -4.082679    2.180736   -1.798784
H      4.081348   -0.461764   -1.198904
H      3.228257    0.898024   -0.407836
H     -8.914009    0.902122    1.986682
H     -7.513564    1.997764    2.048602
H      9.713116   -1.711586    1.454342
H      8.816224   -0.600606    2.584933
H     -3.755231    0.231597   -3.272700
H     -2.558924    1.508074   -3.366716
H      2.883078   -0.078736   -3.346729
H      1.898870    1.196186   -2.545840
H      1.281896   -6.647282   -2.142010
H     -9.571079    3.179012    2.052088
H     -8.686100    3.617100    0.586821
H     11.010549    0.040894    0.498533
H     11.248980   -0.250641    2.281927
H     -0.981539   -6.133088   -2.916959
H      2.217659   -5.423675   -0.259235
H     -1.660482   -0.584689   -3.768142
H     -0.864003    0.281133   -2.368732
H      2.233632   -1.666692   -1.567983
H      0.872698   -1.219063   -2.570563
H    -12.123557   -1.750270    1.670477
H     14.059748    3.804977   -0.329104
H    -10.187266    1.978166   -0.687073
H    -11.021449    3.355247    0.118277
H      9.991673    1.817382    2.791397
H      9.796989    2.264681    1.097260
H    -10.616794   -0.379999    0.357771
H     11.798667    2.722754   -0.357663
H     -2.301975   -4.384823   -1.784342
H      0.933181   -3.682633    0.878690
H     -1.190321   -2.376046   -2.345810
H     -2.809956   -1.961751   -1.831134
H    -13.805691   -0.676631    3.189239
H     15.228728    3.976036    1.769961
H      0.632694    0.711444   -0.560674
H      1.815350   -0.340862    0.186195
H    -12.371825    3.098448    2.006743
H     12.078838    2.071622    3.829252
H     -1.920439   -0.677389    0.135177
H     -1.151736   -2.672588    1.303907
H      0.119789   -1.463534    0.987477
H     -4.864727   -2.912928   -0.507885
