55

C      7.139609    0.205340   -0.075847
C      8.219120   -2.092079    0.172785
C     -2.979113   -2.313132   -1.981865
C     -4.380738   -0.860216    1.433182
C     -4.912664    1.492154    1.720987
C      0.321463   -0.276588   -1.686429
C      1.047786    1.119193    0.067868
C     -5.681126   -1.192594    1.833320
C     -6.172442    1.130958    2.106879
C      1.525094   -0.969595   -1.568799
C      2.224767    0.442085    0.182270
C      5.834343   -1.766931    0.414171
C      4.628632   -0.933708    0.424917
C     -2.673103    0.842551    0.956948
C      7.012516   -1.242497    0.180902
C     -4.022586    0.462695    1.384069
C      0.081560    0.783442   -0.852713
C     -6.567323   -0.189807    2.167435
C      2.482397   -0.627191   -0.646585
C     -1.194986    1.551936   -0.882095
C     -1.197247    2.851761   -1.135274
C     -2.559394    3.354793   -1.116390
C     -3.005082    0.014695   -1.351888
C     -2.565323    1.168029   -0.533759
O     -7.873198   -0.463530    2.572268
O     -0.039652    3.621056   -1.384595
O     -2.903499    4.576949   -1.319027
O     -3.879559    0.181734   -2.268621
O     -2.495076   -1.250489   -1.147611
O      3.675452   -1.333721   -0.548129
O     -3.348938    2.285785   -0.847749
H      6.541847    0.507477   -0.962639
H      8.190044    0.487689   -0.143059
H      6.713883    0.771441    0.802350
H      8.598809   -2.221692   -0.864055
H      8.089454   -3.071053    0.647733
H      9.056480   -1.566621    0.719026
H     -2.965067   -1.937206   -3.033730
H     -2.403732   -3.225134   -1.829747
H     -4.062194   -2.411254   -1.722936
H     -3.728122   -1.690695    1.192481
H     -4.566770    2.517254    1.661363
H     -0.394558   -0.569973   -2.457965
H      0.872831    1.957549    0.734809
H     -6.022839   -2.208861    1.892045
H     -6.853753    1.948593    2.366272
H      1.688738   -1.811363   -2.246181
H      2.983133    0.745557    0.941897
H      5.753527   -2.828608    0.600696
H      4.884254    0.127206    0.172231
H      4.114758   -1.001016    1.405647
H     -2.343989    1.728586    1.525665
H     -1.994332   -0.015912    1.135687
H     -8.120182   -0.611075    3.547678
H      0.226089    3.806033   -2.355893
