94

C      9.990200   -0.103989    0.402914
C     11.634581   -1.005064   -1.264851
C    -10.935819    1.131284   -0.795214
C    -10.093185    0.521645   -3.125334
C      6.540558    0.697442   -2.377737
C     -7.070541   -0.091589   -0.126749
C      0.764990   -3.216328    2.526790
C      9.286855    1.912937   -2.063456
C     -9.977873   -1.317295    0.170887
C     10.212037    0.847326   -1.896723
C     -9.815201   -0.970864   -1.235205
C      8.169322    2.227671   -1.151889
C     -8.778573   -1.642931    0.985972
C      6.814310    0.526227   -0.003557
C      2.485745    0.335348    2.437052
C      5.817592   -0.557340   -0.051699
C     -2.643256    1.676867   -0.177960
C     -2.914125   -0.399386    0.866602
C     -3.814453    2.105033    0.397263
C     -4.088270    0.024651    1.446286
C      3.695374   -0.083407    3.004583
C     -7.560779    0.096035    2.215393
C     -6.646611    1.137064    2.604573
C      3.425429    0.178372    0.286475
C      1.060271    0.888871    0.473465
C     10.525276    0.029008   -0.958156
C    -10.263119    0.181143   -1.701235
C      7.176998    1.141149   -1.099857
C     -7.823101   -0.512086    1.066190
C      2.329206    0.471918    1.089218
C     -2.156178    0.397962    0.045032
C      4.634190   -0.236134    0.795403
C     -4.583069    1.288297    1.235653
C      4.754415   -0.363531    2.170494
C     -0.940377   -0.072877   -0.602977
C     -0.740400   -0.140127   -1.924671
C      0.579901   -0.670178   -2.189631
C      0.271568   -1.249496    1.227323
C      0.330210   -0.404358    0.035272
O      5.992609   -0.787659    2.680815
O     -1.705060    0.258272   -2.845804
O      1.103686   -0.862519   -3.339208
O     -0.371733   -0.845082    2.225829
O      0.894575   -2.491752    1.321149
O     -5.751021    1.753635    1.803705
O      1.149877   -0.921699   -0.974301
H      9.223111   -0.931414    0.353543
H     10.814813   -0.482046    1.088043
H      9.586532    0.799836    0.850103
H     11.662066   -1.146688   -2.347608
H     11.337590   -1.963380   -0.815404
H     12.566720   -0.624458   -0.819069
H    -11.878101    0.698100   -0.348159
H    -11.295334    2.024570   -1.355305
H    -10.244519    1.394174    0.017334
H    -10.757705    1.347413   -3.454932
H     -9.051882    0.897356   -3.251828
H    -10.301555   -0.354623   -3.799927
H      6.817955    1.395893   -3.190830
H      5.417691    0.776052   -2.308081
H      6.872576   -0.307082   -2.676437
H     -6.963314    1.011921   -0.136155
H     -7.575256   -0.307434   -1.100466
H     -6.134285   -0.667181   -0.191085
H      0.758059   -2.482481    3.368378
H      1.619013   -3.917815    2.595694
H     -0.215451   -3.735157    2.502701
H      9.836385    2.916628   -2.236703
H      8.815733    1.810944   -3.130702
H    -10.595446   -0.497653    0.681665
H    -10.718802   -2.194729    0.252407
H     10.852094    0.677547   -2.860686
H     -9.328456   -1.654568   -1.934550
H      7.653472    3.182645   -1.532230
H      8.491403    2.538689   -0.120855
H     -9.133207   -1.941523    2.023595
H     -8.233870   -2.549674    0.575945
H      7.228838    0.798903    0.956703
H      1.707727    0.551779    3.112648
H      5.497008   -0.829928   -1.058591
H      6.246816   -1.502320    0.395865
H     -2.056922    2.317564   -0.824696
H     -2.591428   -1.414304    1.043138
H     -4.195481    3.097318    0.226400
H     -4.648311   -0.645925    2.088419
H      3.789534   -0.182657    4.074890
H     -8.229819   -0.330173    3.041982
H     -6.039163    0.685788    3.486854
H     -7.214686    1.954618    3.224265
H      3.318431    0.281563   -0.777036
H      0.452628    1.417190    1.218464
H      1.211738    1.551256   -0.387107
H      6.078252   -0.879934    3.683199
H     -1.420223    0.408125   -3.811916
