116

C     -6.630307    0.447614   -0.997579
C     -7.672897    1.514299   -1.152588
C      8.524319    0.467612   -1.654329
C      7.518875   -0.575457   -1.306848
C     -6.062751    0.445052    0.381579
C     -8.859372    1.282882   -0.200102
C      9.899373   -0.193296   -1.601645
C      6.079850   -0.187272   -1.367022
C     -4.997751   -0.639056    0.542569
C     -9.817372    2.385518   -0.448176
C     10.225156   -0.814378   -0.292252
C      5.666218    0.967821   -0.524714
C     -3.855131   -0.446624   -0.427417
C    -11.049200    2.492867    0.326872
C     10.258253    0.266345    0.785098
C      4.182925    1.254499   -0.641347
C     -3.117655    0.831705   -0.275865
C      0.367054   -3.229959   -4.248166
C    -12.133394    1.518402    0.298375
C     10.499682   -0.440329    2.120220
C     -0.716737   -3.040349   -3.422257
C      1.617172   -2.964808   -3.705751
C      3.325417    0.115266   -0.104164
C     -2.395741    1.045265    1.001303
C    -14.679832   -2.077716   -0.341654
C     12.827920    3.463608    1.984720
C    -11.780507    0.135629    0.696510
C     10.611237    0.604422    3.189238
C    -13.529969   -1.322533   -0.376204
C     11.738063    2.630913    2.224123
C     -0.614092   -2.612368   -2.125142
C      1.738583   -2.533556   -2.400549
C      1.889491    0.387444   -0.316565
C    -15.356535   -2.170258    0.859579
C     14.021565    3.065415    2.540313
C     -1.265248    0.023325    1.225241
C    -13.764782   -0.801447    1.892082
C     13.042613    1.127439    3.498135
C    -13.041140   -0.673169    0.711422
C     11.798046    1.490953    2.950689
C      0.638936   -2.350641   -1.590589
C      0.879127   -0.547344    0.189058
C      0.822538   -1.946982   -0.213061
C      1.909426   -2.734483    0.438336
N    -14.865001   -1.522717    1.925242
N     14.091636    1.927263    3.268662
N     -0.390105    0.183689    0.126197
O      2.518937   -3.663304   -0.153447
O      2.310567   -2.485820    1.736079
H     -7.061563   -0.556889   -1.234577
H     -5.855195    0.652108   -1.771275
H     -8.050849    1.515997   -2.214723
H     -7.220869    2.499418   -0.958910
H      8.425706    0.808760   -2.719180
H      8.530317    1.367887   -1.045690
H      7.696652   -1.000108   -0.292287
H      7.644301   -1.390489   -2.091310
H     -6.882002    0.124612    1.071573
H     -5.743345    1.429781    0.718367
H     -9.227762    0.295525   -0.490645
H     -8.513680    1.249511    0.840268
H     10.638162    0.648923   -1.753216
H      9.992493   -0.856466   -2.464809
H      5.855792    0.000206   -2.464485
H      5.504876   -1.118727   -1.146522
H     -4.681363   -0.624686    1.582058
H     -5.490853   -1.599463    0.319483
H    -10.018132    2.411156   -1.560699
H     -9.264516    3.382278   -0.308551
H      9.557511   -1.598737    0.065729
H     11.240570   -1.286883   -0.338980
H      6.170162    1.877875   -0.930608
H      5.983829    0.835980    0.509266
H     -4.244947   -0.509714   -1.463761
H     -3.208139   -1.348364   -0.308243
H    -10.707034    2.683167    1.420849
H    -11.487468    3.524228    0.083817
H      9.263908    0.742772    0.749231
H     11.095285    0.926665    0.520602
H      3.981897    2.112138    0.035268
H      3.902262    1.561372   -1.653263
H     -3.871516    1.657084   -0.360075
H     -2.478527    0.961038   -1.177103
H      0.294582   -3.568713   -5.262474
H    -12.998829    1.886596    0.955734
H    -12.655168    1.520263   -0.724750
H      9.625861   -1.115232    2.280364
H     11.389756   -1.072895    1.992133
H     -1.721480   -3.251969   -3.849310
H      2.499409   -3.110706   -4.331872
H      3.619822   -0.770460   -0.683572
H      3.621456    0.021347    0.963612
H     -3.125482    0.983166    1.834515
H     -1.897903    2.029042    0.974471
H    -15.068843   -2.595206   -1.193017
H     12.722220    4.368380    1.390340
H    -11.241595    0.021767    1.625877
H    -11.216314   -0.331777   -0.178365
H     10.686511    0.102641    4.168691
H      9.705439    1.252480    3.155548
H    -12.977540   -1.238788   -1.330296
H     10.775352    2.930624    1.792888
H     -1.495024   -2.474310   -1.516315
H      2.759473   -2.366789   -2.071010
H      1.672394    0.576034   -1.417262
H      1.654779    1.408523    0.126829
H    -16.270613   -2.742752    0.974589
H     14.922870    3.661733    2.397409
H     -0.771215    0.237696    2.166015
H     -1.793970   -0.975174    1.230244
H    -13.414010   -0.297169    2.782840
H     13.055553    0.218566    4.069181
H      1.050715   -0.583465    1.334177
H     -0.122608   -2.361833    0.327025
H     -0.333521    1.094796   -0.325590
H      3.164494   -2.895164    2.149545
