113

C      6.028264    1.852183   -1.918697
C      5.554228    0.863320   -2.961572
C     -6.266834   -0.957766   -2.165281
C     -5.096645   -0.080867   -2.223836
C      7.310582    1.368769   -1.227833
C     -7.225585   -0.778894   -1.033454
C      5.295358   -0.488286   -2.357981
C     -3.997164   -0.176060   -1.233129
C      8.423391    1.216413   -2.172273
C     -8.352885   -1.805056   -1.056185
C      4.199812   -0.388059   -1.259870
C     -4.259493   -0.038421    0.193172
C      9.737348    0.741094   -1.717387
C     -9.225558   -1.551721    0.124667
C      4.004516   -1.725403   -0.649716
C     -3.042567   -0.013019    1.064570
C     -0.309432    0.700964    4.921685
C      9.905282   -0.597817   -1.180101
C     -9.918637   -0.221380    0.153693
C      0.617972   -0.209829    4.488131
C     -0.877459    1.591586    4.040209
C      3.049833   -1.942021    0.450506
C     -2.155657   -1.162556    1.193592
C      9.628147    1.345797    3.005612
C    -13.381502    2.533782   -0.247967
C      9.299546   -1.057510    0.088024
C    -10.863472   -0.060928   -1.024211
C      9.124723    0.732248    1.849005
C    -12.747755    1.314827   -0.261671
C      1.011173   -0.264463    3.161565
C     -0.466631    1.512385    2.734120
C      1.614090   -1.821196    0.349838
C     10.766026    0.863658    3.610754
C    -12.879088    3.622133   -0.912121
C     -1.361935   -1.698794    0.085090
C     10.892817   -0.795373    1.951109
C    -11.058756    2.326133   -1.652172
C      9.743420   -0.345434    1.299857
C    -11.562559    1.240379   -0.987930
C      0.468086    0.605833    2.255143
C      0.860489   -0.614935    0.041855
C      0.878531    0.592928    0.853546
C      2.117274    1.450707    0.682420
N     11.364516   -0.201893    3.055936
N    -11.729365    3.497695   -1.600318
N     -0.421438   -0.920767   -0.594944
O      2.152725    2.299555   -0.226125
O      3.218960    1.330264    1.504167
H      6.321418    2.777523   -2.455935
H      5.263803    2.024880   -1.181530
H      6.235415    0.801945   -3.820802
H      4.567208    1.259308   -3.311757
H     -6.880486   -0.737812   -3.105722
H     -6.019145   -2.049471   -2.314567
H     -5.481975    0.996583   -2.262221
H     -4.587434   -0.168800   -3.246207
H      7.570853    2.240745   -0.550582
H      7.065323    0.553480   -0.572483
H     -6.748973   -0.724173   -0.069920
H     -7.787312    0.211803   -1.158509
H      6.181062   -0.900762   -1.889441
H      4.923812   -1.165473   -3.148278
H     -3.280894    0.684027   -1.511498
H     -3.355061   -1.067522   -1.509932
H      8.624981    2.200150   -2.733835
H      8.087540    0.548426   -3.047533
H     -8.932462   -1.775025   -1.986075
H     -7.924675   -2.823745   -0.946599
H      3.347874    0.070009   -1.767189
H      4.629701    0.276287   -0.463325
H     -4.943629    0.793773    0.374673
H     -4.810438   -0.963523    0.612512
H     10.095741    1.470976   -0.899326
H     10.533031    0.927387   -2.530884
H     -9.937539   -2.401714    0.295254
H     -8.539089   -1.546388    1.031853
H      5.038540   -2.061328   -0.290363
H      3.816752   -2.499147   -1.479942
H     -2.458800    0.945918    0.834817
H     -3.438211    0.237121    2.106742
H     -0.603976    0.730275    5.961275
H     11.045578   -0.755046   -1.020559
H      9.629334   -1.386879   -1.969880
H     -9.178722    0.585720    0.228228
H    -10.498312   -0.186312    1.119754
H      1.083230   -0.932375    5.191090
H     -1.625676    2.330805    4.368698
H      3.287857   -3.022172    0.867353
H      3.472436   -1.354085    1.338669
H     -2.908721   -2.050835    1.432930
H     -1.605088   -1.191507    2.193502
H      9.121198    2.204364    3.428496
H    -14.316728    2.640931    0.310713
H      8.205721   -1.177961    0.103710
H      9.696489   -2.140205    0.207926
H    -11.635818   -0.874734   -0.901121
H    -10.317571   -0.225895   -1.958709
H      8.238577    1.130712    1.423244
H    -13.104636    0.439687    0.244802
H      1.774039   -1.016530    2.885732
H     -0.938284    2.249572    2.065299
H      1.327907   -2.550977   -0.537335
H      1.134645   -2.438038    1.190159
H     11.167813    1.326205    4.505479
H    -13.390295    4.563857   -0.887805
H     -0.779128   -2.603938    0.597840
H     -1.971794   -2.299042   -0.608856
H     11.394792   -1.651319    1.533207
H    -10.156427    2.257096   -2.199805
H      1.423406   -0.231086   -0.941944
H      0.084433    1.297972    0.349348
H     -0.265755   -1.233367   -1.588497
H      3.965854    2.035368    1.572168
