68

C     -4.012346   -1.313727    1.398053
C     -0.289622    3.379871    2.679060
C     -2.372064    2.316184   -3.270140
C      4.206655    3.660544   -1.291164
C      0.685454   -3.377142    0.395731
C      2.794980    0.503429    2.070975
C     -1.504712   -1.821575   -1.492168
C     -2.423393   -2.053286   -0.334026
C      2.732033   -1.710078    0.046514
C     -0.445782   -2.833005   -1.700304
C      3.572410   -0.461858    0.002185
C      0.193451    0.478135    1.035063
C     -3.352149   -0.983326    0.042784
C     -0.753410    2.215631    2.345839
C     -2.990193    1.819994   -2.035103
C      3.474291    2.371401   -1.025543
C     -0.853569    1.560631    0.974959
C      1.626974   -1.503472   -1.005678
C      1.303132    0.600911    0.022516
C     -2.961828    0.439629    0.038463
C     -2.276231    1.019549    1.192276
C     -1.331248    1.153785    3.184761
C      0.831116   -2.741130   -0.994654
C      2.673922    0.651396    0.563589
O     -4.156055    2.224836   -1.741032
O      2.948911    1.712238   -1.948936
O     -1.224297    1.074771    4.446979
O      1.656148   -3.726804   -1.646045
O     -2.400809    0.935647   -1.151920
O      1.068437   -0.294086   -0.978711
O     -2.015509    0.256335    2.325952
O      3.354273    1.864713    0.256865
H     -4.760221   -2.130886    1.280039
H     -3.258704   -1.710319    2.112381
H     -4.573034   -0.446570    1.786606
H      0.109226    4.067052    1.954872
H     -0.298531    3.680375    3.711823
H     -3.024807    2.011335   -4.127637
H     -2.458408    3.441443   -3.247056
H     -1.345907    1.971293   -3.408234
H      5.289920    3.420344   -1.114875
H      3.871998    4.469670   -0.643423
H      4.106170    3.878418   -2.371044
H      1.558111   -4.026939    0.638531
H      0.457087   -2.661119    1.181020
H     -0.172935   -4.075591    0.322339
H      3.910747    0.544059    2.266612
H      2.490604   -0.489647    2.434997
H      2.385329    1.355025    2.626002
H     -2.087741   -1.819508   -2.474546
H     -1.053265   -0.861940   -1.289927
H     -1.798675   -2.325191    0.540053
H     -2.947276   -3.032848   -0.581718
H      2.350533   -1.959478    1.029113
H      3.328009   -2.575204   -0.311290
H     -0.903421   -3.827138   -1.399775
H     -0.229267   -3.015171   -2.801536
H      3.816149   -0.252300   -1.042197
H      4.478193   -0.574097    0.624611
H     -0.378310   -0.467640    0.950672
H      0.702727    0.385863    2.022728
H     -4.237879   -1.123776   -0.665806
H     -0.771251    2.259680    0.170171
H      2.242851   -1.506533   -1.968776
H      1.114932    1.619726   -0.449870
H     -3.989020    0.976165    0.024459
H     -2.828916    1.933368    1.593321
H      1.146014   -4.552062   -1.779774
