68

C      4.022882   -1.951536   -0.590896
C     -0.082329    3.635492   -2.411411
C      5.140796    0.575235    2.524028
C     -4.356237    4.133870   -1.009942
C     -2.046791   -3.814593    0.721008
C     -2.506205    1.198338    1.764030
C      1.493815   -2.946542    0.069494
C      1.651334   -2.131053   -1.143800
C     -3.051709   -1.453873    0.284139
C      0.221101   -2.813984    0.818190
C     -3.531478   -0.059277   -0.141371
C     -0.066392    1.515764    0.008747
C      2.845877   -1.181249   -1.090775
C      0.812916    2.997695   -1.673935
C      3.882175    0.262675    1.797540
C     -4.053115    2.876089   -0.255661
C      0.773161    1.578633   -1.224660
C     -1.644360   -1.600254   -0.218852
C     -1.185254    0.561587   -0.231757
C      2.540432    0.054336   -0.264865
C      2.195093    1.239538   -1.076216
C      2.054207    3.534750   -1.124763
C     -1.022061   -2.924154    0.003934
C     -2.524296    1.008260    0.263601
O      2.898979   -0.104196    2.495995
O     -4.908141    2.426972    0.550112
O      2.399878    4.754978   -1.103707
O     -0.811985   -3.530179   -1.234294
O      3.758748    0.356995    0.437296
O     -0.895595   -0.624219    0.483458
O      2.782488    2.444574   -0.629542
O     -2.866881    2.195703   -0.416897
H      4.950970   -1.738421   -1.194187
H      4.295650   -1.760047    0.453151
H      3.852423   -3.056820   -0.752181
H      0.059597    4.666540   -2.671532
H     -0.957971    3.079804   -2.739882
H      5.155274    1.697856    2.641164
H      5.199413    0.094778    3.501968
H      6.024703    0.356225    1.875878
H     -5.050171    4.729440   -0.372996
H     -3.457093    4.743180   -1.159836
H     -4.894812    3.934439   -1.948999
H     -2.351142   -3.364492    1.680074
H     -1.584441   -4.828582    0.904968
H     -2.935141   -3.994968    0.118226
H     -1.749947    0.521585    2.174898
H     -3.533336    0.972774    2.127548
H     -2.293680    2.259966    2.006197
H      2.323104   -2.674137    0.785842
H      1.662252   -4.047361   -0.117414
H      1.889982   -2.829952   -2.001182
H      0.798196   -1.543827   -1.472574
H     -3.102363   -1.489187    1.407389
H     -3.767409   -2.159241   -0.186545
H      0.196108   -1.880957    1.449285
H      0.201288   -3.646536    1.579393
H     -3.540637   -0.073938   -1.251439
H     -4.542240    0.144219    0.212321
H      0.529639    1.275097    0.936500
H     -0.537752    2.513105    0.256820
H      3.064293   -0.852993   -2.128109
H      0.342215    0.985038   -2.059873
H     -1.683183   -1.336561   -1.317332
H     -1.313545    0.323023   -1.328660
H      1.823341   -0.239199    0.502136
H      2.610759    1.072763   -2.114658
H     -1.605397   -4.068993   -1.527503
