40

C      4.898052   -0.976294   -1.291438
C     -2.765333    0.947557    2.207882
C     -0.688305    1.372441   -2.063229
C     -2.811250   -1.462629   -0.810785
C     -2.350187   -0.346646   -1.713374
C      3.569437    0.080632    0.532258
C      2.385126   -0.856760   -1.256546
C     -0.917215   -0.619470    1.737997
C      3.598658   -0.582130   -0.669607
C     -0.124842    0.582768    1.199784
C      2.382757    0.475376    1.163591
C      1.198753   -0.469352   -0.639167
C     -3.105611   -0.839991    0.504166
C      1.155404    0.196979    0.568583
C     -1.234989    0.791082    0.225774
C     -2.139394    0.024661    1.161286
C     -1.061802    0.213366   -1.119444
O      2.401981    1.132096    2.360300
O     -4.177465   -1.070418    1.021395
O     -0.041620   -0.743062   -1.227187
H      5.675138   -1.178203   -0.499560
H      5.298883   -0.150667   -1.903507
H      4.814187   -1.932977   -1.856480
H     -2.647642    0.456185    3.195559
H     -3.864726    1.051086    2.040550
H     -2.254835    1.912360    2.248054
H      0.403911    1.544621   -1.960161
H     -1.205165    2.311357   -1.730440
H     -0.946583    1.104638   -3.089890
H     -1.984051   -2.187199   -0.680917
H     -3.711733   -1.974886   -1.229580
H     -2.152843   -0.720866   -2.721599
H     -3.111568    0.480398   -1.714998
H      4.508979    0.315010    1.025889
H      2.380887   -1.377701   -2.201821
H     -0.860517   -0.635929    2.837631
H     -0.600349   -1.570522    1.278705
H     -0.011110    1.372627    1.969367
H     -1.594806    1.858503    0.165904
H      1.691786    1.471958    2.935053
