51

C      4.973713    2.047214   -1.090226
C     -2.555900   -2.590205    0.833722
C     -2.376916    1.227101    2.532665
C     -3.377167    2.134827    2.790715
C      2.090679    0.406138    0.346202
C      2.375397    1.221003   -0.937724
C      2.823214   -1.877888   -0.242812
C     -2.769581    1.415387    0.221030
C      0.331691   -2.612161   -1.117601
C      3.899680    2.983203   -0.706963
C     -2.633171   -1.940401   -0.489977
C      1.772987   -0.954062   -0.126159
C     -2.034473    0.831916    1.231718
C      0.551770   -1.338306   -0.560781
C     -4.083660    2.689147    1.725951
C     -3.768435    2.318856    0.436499
C      2.678857   -3.132220   -0.771569
C      1.401286   -3.467185   -1.204858
C     -0.642674   -0.525765   -0.378588
C     -0.968615   -0.122075    0.997735
N      2.692540    2.577522   -0.641597
N     -1.826863   -1.098741   -0.948264
O      4.227432    4.294961   -0.423684
O     -3.710445   -2.294944   -1.319147
O     -5.096555    3.606947    1.964295
O     -4.467480    2.866866   -0.623127
O      3.752128   -4.026949   -0.871452
O      1.237619   -4.744488   -1.749684
O     -0.344914   -0.583475    1.969567
H      4.921791    1.717301   -2.146503
H      5.988101    2.508672   -0.968972
H      4.954023    1.198151   -0.376819
H     -1.518604   -2.889362    1.098398
H     -2.936560   -1.888051    1.597455
H     -3.218196   -3.496882    0.809536
H     -1.820407    0.788826    3.354693
H     -3.649596    2.446929    3.785446
H      3.069194    0.423696    0.889455
H      1.314729    0.971011    0.833609
H      1.555118    1.169629   -1.662680
H      3.251512    0.747762   -1.469687
H      3.807788   -1.564279    0.112822
H     -2.541000    1.144035   -0.803279
H     -0.643610   -2.923421   -1.473469
H     -0.536178    0.469314   -0.944172
H      3.577067    4.958733   -0.017257
H     -4.046797   -1.622842   -2.007581
H     -5.313816    3.866936    2.916395
H     -4.222416    2.584366   -1.559408
H      3.540665   -4.927991   -1.277288
H      0.315048   -4.994757   -2.065952
