51

C      4.577677    3.586180    0.816140
C     -2.873894   -2.301759    2.682081
C     -2.234576    1.492987    1.098929
C     -3.092964    2.514420    1.479015
C      1.912115    0.215056   -1.312308
C      2.979628    0.362940   -0.205984
C      2.249827   -2.109582   -2.025922
C     -2.698545    1.930795   -1.154394
C      0.312239   -3.029822   -0.318005
C      4.126797    2.185304    0.847595
C     -2.246065   -1.867074    1.382488
C      1.496411   -1.199608   -1.257587
C     -2.022332    1.183371   -0.221035
C      0.528124   -1.650625   -0.408696
C     -3.770589    3.262554    0.525145
C     -3.563715    2.959007   -0.803349
C      2.005846   -3.456359   -1.910419
C      1.033259   -3.942777   -1.053261
C     -0.372316   -0.755735    0.294277
C     -1.130843    0.117193   -0.655378
N      3.460228    1.705996   -0.142017
N     -1.145720   -1.255229    1.357495
O      4.432355    1.405482    1.951825
O     -2.898356   -2.149293    0.191239
O     -4.627451    4.283319    0.922177
O     -4.247441    3.715054   -1.743953
O      2.750948   -4.347079   -2.669684
O      0.777211   -5.294898   -0.923444
O     -0.969997   -0.104326   -1.901368
H      4.117580    4.146667   -0.032293
H      5.667625    3.713660    0.761484
H      4.239071    4.109730    1.749338
H     -2.106712   -2.194289    3.459153
H     -3.728626   -1.662855    2.954806
H     -3.127012   -3.365030    2.552345
H     -1.738522    0.954098    1.890043
H     -3.246076    2.741629    2.515743
H      2.429977    0.475800   -2.255407
H      1.163524    0.948445   -1.050719
H      3.871213   -0.273829   -0.492160
H      2.641366    0.027251    0.768829
H      3.001610   -1.739272   -2.688852
H     -2.534945    1.690724   -2.195606
H     -0.452410   -3.346239    0.365742
H      0.345194    0.005409    0.815035
H      4.231276    0.414444    1.993472
H     -2.914368   -1.545333   -0.599838
H     -5.139149    4.851601    0.263694
H     -4.113569    3.512404   -2.733909
H      2.590164   -5.338182   -2.601538
H      0.054928   -5.582326   -0.280966
