52

C      6.102045   -0.525623    1.121084
C     -4.284689   -3.694459    1.147366
C     -3.091578    0.661796   -0.371017
C     -3.989591    1.692306   -0.135683
C      1.846149   -0.781714    0.684258
C      3.333749   -0.846015    0.925619
C     -1.696974    1.563510    1.308972
C      2.390118    0.402467   -1.448601
C     -0.314604    0.648095   -1.954598
C     -1.599848   -1.672559   -0.523087
C      5.199511    0.654558    1.122818
C     -3.167052   -3.339434    0.249744
C     -1.926257    0.581512    0.351255
C      1.455965   -0.101223   -0.550359
C      0.101893    0.020453   -0.801453
C     -0.907393   -0.509339    0.144611
C     -3.722173    2.645154    0.824177
C     -2.566514    2.595371    1.564763
C      1.949890    1.038325   -2.616829
C      0.600298    1.157114   -2.862436
N      3.939514    0.467851    1.031794
N     -2.684704   -2.153701    0.291905
O      5.670283    1.955867    1.219443
O     -2.677148   -4.319556   -0.616296
O     -4.624660    3.663804    1.046560
O     -2.355513    3.581973    2.513905
O      2.902415    1.529848   -3.491958
O      0.153343    1.785864   -4.017378
H      7.170743   -0.246862    1.028168
H      5.896996   -1.217628    0.271136
H      5.952618   -1.030903    2.107162
H     -4.000517   -4.447668    1.908117
H     -4.668437   -2.773980    1.662994
H     -5.164633   -4.080734    0.579153
H     -3.322893   -0.079615   -1.130755
H     -4.912425    1.726612   -0.731695
H      1.405094   -0.331715    1.598034
H      1.457532   -1.840202    0.674847
H      3.826062   -1.415058    0.106368
H      3.586351   -1.387998    1.857118
H     -0.787428    1.529003    1.896343
H      3.425166    0.296876   -1.243081
H     -1.362388    0.776015   -2.209826
H     -1.948521   -1.440370   -1.542445
H     -0.846225   -2.511183   -0.645789
H     -0.519892   -0.786965    1.119168
H      5.143374    2.691149    1.700402
H     -2.189295   -4.023011   -1.448840
H     -4.424176    4.355842    1.747608
H     -1.545536    3.648059    3.114872
H      2.620801    1.994786   -4.344210
H     -0.828844    1.893304   -4.233430
