48

C     -5.107065    0.095659    0.294781
C      3.174228   -3.015485   -1.746936
C      2.195666    3.974098    2.226193
C      4.619252    0.830042   -1.095143
C      4.099244    1.606894   -0.095606
C      4.112205   -0.439382   -1.278189
C     -0.282913   -2.007647    0.923008
C     -1.517446   -2.303649    0.386004
C     -0.569262    0.282229    0.426751
C     -3.632916   -1.656600   -0.715696
C     -3.705658    0.676556   -1.619994
C      0.214760   -0.718837    0.955186
C     -2.305896   -1.307077   -0.143816
C      3.074093    1.106089    0.714148
C     -1.811038   -0.016233   -0.113312
C     -2.629905    1.057230   -0.669545
C      3.096222   -0.937557   -0.476718
C      2.577784   -0.163760    0.519409
C      1.529261   -0.372027    1.522035
C      2.341456    1.695794    1.833605
C     -4.480052   -0.451566   -0.970070
O     -2.384337    2.238677   -0.318302
O     -5.500856   -0.799848   -1.854283
O      2.637464   -2.219368   -0.718432
O      1.714471    2.895304    1.513441
O      1.504251    0.736727    2.328877
H     -4.372267    0.649381    0.915870
H     -5.590151   -0.687540    0.901812
H     -5.872181    0.852033   -0.022311
H      2.582500   -3.906098   -1.948587
H      3.263868   -2.460797   -2.712667
H      4.216571   -3.283370   -1.451013
H      2.024029    3.758475    3.305983
H      1.558992    4.843409    1.984202
H      3.245044    4.226093    2.009807
H      5.424762    1.208195   -1.740174
H      4.500893    2.604138    0.044638
H      4.559734   -1.015900   -2.085794
H      0.329311   -2.817812    1.340128
H     -1.828010   -3.338596    0.402291
H     -0.254783    1.325435    0.411253
H     -4.155428   -2.252300    0.089605
H     -3.549813   -2.329196   -1.584426
H     -4.405269    1.504407   -1.783531
H     -3.193361    0.340810   -2.552354
H      1.822515   -1.241043    2.181702
H      3.103287    1.959503    2.624723
H     -6.373255   -0.725489   -1.419204
