48

C      4.026125    1.317611   -1.490325
C     -2.711179   -4.160780   -0.165198
C     -1.747021    3.644327    0.165814
C     -4.198940   -0.626848   -1.629520
C     -3.899902    0.569057   -0.997242
C     -3.686612   -1.799780   -1.117457
C      0.416916    0.686353    2.387381
C      1.761555    0.833918    2.116576
C      0.222828   -0.604396    0.408897
C      3.819376    0.506372    0.822652
C      3.692184   -1.120789   -1.044526
C     -0.361454   -0.043499    1.519930
C      2.355047    0.280279    1.013618
C     -3.100327    0.600104    0.131961
C      1.589945   -0.444566    0.149137
C      2.211471   -1.035244   -1.023245
C     -2.884310   -1.765383    0.016237
C     -2.593963   -0.571489    0.636012
C     -1.801053   -0.194819    1.820439
C     -2.610560    1.714214    1.014441
C      4.284360    0.163242   -0.551429
O      1.493453   -1.442402   -1.953799
O      5.688478    0.014260   -0.491195
O     -2.394504   -2.972599    0.490572
O     -1.507144    2.274066    0.417708
O     -2.332646    1.048821    2.202218
H      2.941814    1.483117   -1.549799
H      4.520782    2.214782   -1.032887
H      4.505019    1.103691   -2.457274
H     -3.800954   -4.398406   -0.098292
H     -2.485223   -4.111180   -1.260928
H     -2.078495   -4.973894    0.251112
H     -0.864450    4.106482   -0.315168
H     -1.863215    4.171402    1.155172
H     -2.680054    3.779623   -0.426100
H     -4.830527   -0.644820   -2.520320
H     -4.313825    1.489826   -1.415713
H     -3.939560   -2.714957   -1.635243
H     -0.041611    1.139980    3.280663
H      2.359231    1.418659    2.821305
H     -0.355525   -1.181651   -0.291206
H      4.075460    1.543117    1.095748
H      4.360396   -0.164487    1.542768
H      4.087879   -1.332141   -2.053853
H      3.986565   -1.919158   -0.329169
H     -1.911626   -0.924655    2.645204
H     -3.435223    2.457120    1.163389
H      6.031019    0.587519    0.247944
