53

C      5.280186    2.785573   -0.905950
C     -5.411423    1.913900    1.112995
C     -5.081930    2.907240   -1.201988
C      2.332524   -3.868913   -1.110564
C      5.348305    1.863780    0.272048
C      4.481819    0.643527   -0.040079
C      3.078354    1.079154   -0.274457
C      2.201082   -0.088090   -0.611898
C     -4.462637    0.609289   -0.768557
C     -4.275470   -0.644376    0.007309
C     -2.356015   -2.078266   -0.738257
C     -4.963522    1.727392   -0.269351
C     -2.850278   -1.062288    0.020697
C     -1.036924   -2.462600   -0.725320
C      2.188120   -1.068836    0.516001
C     -0.126791   -1.799322    0.097406
C     -0.614016   -0.757091    0.879357
C     -1.947834   -0.376141    0.860121
C      1.267510   -2.230251    0.123365
C      0.324208   -0.039550    1.708943
O     -0.557107   -3.497771   -1.506893
O     -2.469826    0.642869    1.614448
O     -0.011480    0.908816    2.448183
O      1.697991   -2.630478   -1.128499
O      1.668574   -0.433223    1.675098
H      6.146805    3.498565   -0.807935
H      4.367474    3.412492   -0.889380
H      5.406931    2.241135   -1.863552
H     -5.810286    0.997694    1.551071
H     -4.645047    2.425072    1.753389
H     -6.277767    2.637655    1.098674
H     -4.771716    3.826891   -0.662630
H     -6.168075    2.975030   -1.441107
H     -4.444300    2.786542   -2.090668
H      2.628712   -4.121085   -2.155946
H      1.707157   -4.659339   -0.690287
H      3.300606   -3.794874   -0.521245
H      4.899233    2.344545    1.153883
H      6.384807    1.534711    0.421552
H      4.575227   -0.074890    0.802917
H      4.927824    0.152850   -0.927898
H      2.994206    1.905718   -1.014483
H      2.691136    1.487446    0.692170
H      1.170023    0.315254   -0.824532
H      2.567733   -0.613228   -1.534696
H     -4.143637    0.537267   -1.822987
H     -4.678203   -0.603980    1.025807
H     -4.868997   -1.455189   -0.509274
H     -3.046720   -2.610690   -1.387386
H      3.190349   -1.419180    0.731339
H      1.452850   -3.016184    0.890761
H     -1.165060   -4.012117   -2.118480
H     -2.094685    1.257546    2.252955
