51

C      6.234028    1.992210   -1.976727
C     -6.283464   -0.095717    0.196443
C     -6.087186    0.293388   -2.316746
C      1.468436   -3.477091    0.723947
C      6.119951    0.980505   -0.884178
C      5.005465    0.977819   -0.132724
C      4.842224    0.000112    0.958105
C      3.669561   -0.903645    0.810653
C     -4.408622    1.120996   -0.766060
C     -3.844335    1.306304    0.615383
C     -2.349554   -0.575854    1.224255
C     -5.541037    0.470133   -0.959010
C     -2.514025    0.643406    0.629898
C     -1.138425   -1.206031    1.247321
C      2.335923   -0.238245    0.756393
C     -0.065044   -0.552275    0.635774
C     -0.201989    0.679678    0.030068
C     -1.434910    1.302073    0.015250
C      1.242919   -1.245746    0.614984
C      0.984028    1.314538   -0.540845
O     -0.926806   -2.444072    1.839874
O     -1.624959    2.510181   -0.567456
O      0.925888    2.402630   -1.093502
O      1.312873   -2.309289    1.462581
O      2.203914    0.600675   -0.419114
H      7.275824    2.390088   -1.912747
H      5.554761    2.834440   -1.753923
H      6.082452    1.555063   -2.968330
H     -7.198931   -0.643143   -0.134061
H     -6.503719    0.633348    0.983720
H     -5.605197   -0.876261    0.648632
H     -5.249416    0.221921   -3.061561
H     -6.669378   -0.672974   -2.316000
H     -6.754243    1.125635   -2.599670
H      2.417840   -3.441081    0.110393
H      1.414807   -4.399670    1.309102
H      0.673199   -3.563957   -0.074261
H      6.899751    0.271392   -0.695475
H      4.224604    1.712517   -0.340011
H      4.836116    0.515338    1.960705
H      5.750476   -0.651056    1.000552
H      3.816838   -1.523938   -0.097184
H      3.659089   -1.576883    1.696822
H     -3.889763    1.521880   -1.622596
H     -4.495008    0.788870    1.316380
H     -3.706103    2.384090    0.791923
H     -3.210849   -1.054114    1.690559
H      2.146542    0.351168    1.676848
H      1.334281   -1.637979   -0.445768
H     -1.712846   -2.896926    2.273474
H     -1.015983    3.085548   -1.022029
