51

C     -6.085749    1.659765   -2.291112
C      5.982569    1.635141   -1.118193
C      6.828334   -0.093230    0.517252
C     -2.188694   -2.697934    2.029611
C     -5.871808    0.925956   -0.997635
C     -4.705002    0.443825   -0.633610
C     -4.572675   -0.268580    0.656870
C     -3.569483    0.411147    1.580814
C      4.760018   -0.431382   -0.671786
C      3.692892   -0.071565   -1.615479
C      1.577559   -1.366999   -1.342469
C      5.779217    0.341210   -0.456099
C      2.305789   -0.243019   -1.014542
C      0.293806   -1.562063   -0.788949
C     -2.213531    0.475171    0.996854
C     -0.238142   -0.653173    0.067033
C      0.481257    0.486594    0.406831
C      1.756011    0.664356   -0.151790
C     -1.572744   -0.870702    0.683649
C     -0.094600    1.488320    1.296204
O     -0.354946   -2.726987   -1.186206
O      2.430470    1.798159    0.208575
O      0.549961    2.519967    1.611220
O     -1.497176   -1.549469    1.863955
O     -1.374288    1.272696    1.786820
H     -6.071493    2.740837   -2.035929
H     -5.280303    1.488765   -3.009315
H     -7.092812    1.373204   -2.684541
H      5.541599    2.505656   -0.626826
H      7.082459    1.889050   -1.195884
H      5.658735    1.623777   -2.201782
H      7.839041    0.236616    0.199451
H      6.582876    0.129183    1.559188
H      6.863698   -1.217742    0.447335
H     -1.983963   -3.524589    1.327246
H     -1.883247   -3.153190    3.039875
H     -3.262758   -2.482126    2.193827
H     -6.720367    0.786082   -0.330515
H     -3.843835    0.562842   -1.267825
H     -5.556835   -0.270809    1.174888
H     -4.330196   -1.331735    0.464650
H     -3.996513    1.421431    1.779374
H     -3.544673   -0.084404    2.573133
H      4.714986   -1.392229   -0.112939
H      3.820696    1.011663   -1.893450
H      3.803954   -0.634288   -2.544044
H      2.026446   -2.066793   -2.021901
H     -2.309431    0.990989   -0.004965
H     -2.214229   -1.385678   -0.024587
H     -1.267413   -2.916781   -0.833013
H      3.324537    2.113065   -0.068906
