56

C      0.559545    2.116382    1.252908
C     -4.068977    0.738779    1.909056
C     -3.855816   -1.462820    0.902651
C     -1.507856   -1.184887   -1.249542
C     -3.189169    0.955974   -1.643409
C     -0.003237   -0.093242    2.260291
C     -1.301091   -0.746279    1.784771
C     -4.055339    0.590596   -0.510786
C     -1.738099    1.250601   -1.301991
C      1.050004   -0.373342   -1.074432
C      3.048811   -1.761599   -0.898115
C      5.646852    1.464306   -0.541527
C      0.709952    0.622254    1.103749
C      2.483676   -0.471035   -0.902831
C      4.735056    0.344817   -0.666777
C      0.217939    0.117469   -0.186292
C      4.385622   -2.006027   -0.784115
C     -1.972952    0.169103    0.833112
C      3.371110    0.562047   -0.785140
C      5.248069   -0.947177   -0.666006
C     -3.461544   -0.012841    0.704892
C     -1.263044    0.098421   -0.494790
O      6.888366    1.207799   -0.435807
O      4.922014   -3.286754   -0.781828
O      2.858613    1.841024   -0.793934
O      6.619209   -1.152193   -0.546493
H     -0.043400    2.377840    2.161714
H      0.268851    2.646339    0.345856
H      1.576299    2.563607    1.511860
H     -5.169300    0.644446    1.802664
H     -3.791749    0.219949    2.839815
H     -3.822998    1.802357    1.885005
H     -4.540771   -1.801344    0.069922
H     -4.499115   -1.616844    1.819642
H     -3.003429   -2.138551    1.054178
H     -0.747044   -1.956471   -1.013136
H     -1.337014   -0.927579   -2.338806
H     -2.541095   -1.541189   -1.212998
H     -3.555982    1.855504   -2.184384
H     -3.193569    0.141406   -2.428040
H     -0.213859    0.625998    3.051492
H      0.615437   -0.908438    2.683465
H     -1.029238   -1.717640    1.318885
H     -1.908910   -0.907092    2.714381
H     -4.705541    1.491432   -0.285779
H     -4.817589   -0.154561   -0.896673
H     -1.769955    2.215345   -0.742833
H     -1.178269    1.296387   -2.239739
H      0.660973   -0.748995   -2.036823
H      2.386452   -2.608356   -0.989744
H      5.357415    2.500952   -0.530601
H      1.778167    0.380491    1.245311
H     -1.828222    1.214513    1.184530
H      4.342883   -4.108954   -0.864799
H      3.403500    2.669991   -0.714908
H      6.979361   -2.091919   -0.546584
