53

C      5.218308   -2.647796    0.442554
C     -5.555497   -1.922669    0.880254
C     -5.454227   -2.525994   -1.590043
C      2.164389    4.184144    0.215305
C      5.566417   -1.762293   -0.738123
C      4.571379   -0.604591   -0.735891
C      3.158153   -1.111948   -0.868139
C      2.209659    0.052253   -0.886704
C     -4.532908   -0.450519   -0.762068
C     -4.206161    0.522673    0.276279
C     -2.333880    2.092274   -0.181728
C     -5.148389   -1.571537   -0.497470
C     -2.742709    0.880365    0.329973
C     -0.998497    2.456349   -0.149381
C      2.315852    0.826217    0.373133
C     -0.044282    1.637650    0.385113
C     -0.446538    0.424300    0.897855
C     -1.788958    0.035553    0.876391
C      1.378112    2.016049    0.437956
C      0.591723   -0.434794    1.448465
O     -0.667852    3.676440   -0.677164
O     -2.233827   -1.148737    1.369417
O      0.265610   -1.546793    1.926553
O      1.732919    3.034159   -0.411241
O      1.939803   -0.020397    1.443337
H      4.736135   -2.022116    1.226701
H      4.460579   -3.385283    0.095467
H      6.096662   -3.141601    0.877546
H     -4.715836   -2.220656    1.535855
H     -6.088086   -1.091362    1.405756
H     -6.248911   -2.812801    0.881375
H     -6.484636   -2.933039   -1.514694
H     -4.702213   -3.362232   -1.530049
H     -5.280793   -2.025769   -2.556751
H      3.059464    3.935578    0.825202
H      2.265711    5.045289   -0.435738
H      1.377556    4.454006    0.980239
H      5.580094   -2.289733   -1.693498
H      6.588583   -1.377311   -0.549005
H      4.879669    0.073327   -1.555925
H      4.744210   -0.031611    0.219492
H      3.135956   -1.684189   -1.829728
H      2.989423   -1.784008    0.001891
H      1.172650   -0.349081   -0.953053
H      2.472376    0.638076   -1.799218
H     -4.251565   -0.227206   -1.784610
H     -4.542833    0.201723    1.303402
H     -4.778364    1.449736    0.074645
H     -3.098587    2.751753   -0.611693
H      3.330645    1.276677    0.560850
H      1.544727    2.432338    1.480772
H     -1.322874    4.317070   -1.081566
H     -1.878341   -1.927933    1.793425
