53

C      6.732413   -0.062155    0.291119
C     -6.097586    1.016824    1.190054
C     -6.800112   -0.062526   -1.020081
C      1.725251    2.807269   -2.138020
C      5.373446   -0.412129    0.867179
C      4.761376   -1.549216    0.069529
C      3.426377   -1.907943    0.632557
C      2.499384   -0.737246    0.595795
C     -4.752552   -0.686639    0.123968
C     -3.783759   -0.565262    1.247675
C     -1.966118    1.110635    0.847944
C     -5.838708    0.056462    0.097247
C     -2.453982   -0.156932    0.727117
C     -0.726770    1.447970    0.347490
C      2.304344   -0.279683   -0.828083
C      0.019829    0.492598   -0.278808
C     -0.464086   -0.796190   -0.406456
C     -1.693720   -1.146063    0.085664
C      1.346881    0.912024   -0.814728
C      0.408561   -1.751256   -1.073471
O     -0.301297    2.752458    0.509643
O     -2.202394   -2.398294   -0.020484
O      0.066200   -2.962147   -1.247309
O      1.267686    1.537530   -2.014021
O      1.638317   -1.312079   -1.523438
H      7.148761    0.750833    0.909010
H      7.407191   -0.926012    0.398444
H      6.583236    0.274509   -0.742377
H     -6.351185    0.503012    2.150325
H     -6.975327    1.669551    0.935523
H     -5.254458    1.699717    1.397265
H     -6.887273    0.947569   -1.493140
H     -7.807862   -0.336931   -0.651027
H     -6.486516   -0.818892   -1.771158
H      1.553170    3.096069   -3.221392
H      1.200128    3.596631   -1.580690
H      2.844265    2.897193   -2.025743
H      4.710702    0.471888    0.748256
H      5.512833   -0.749312    1.895309
H      4.720480   -1.280991   -0.995359
H      5.412706   -2.463653    0.205744
H      2.960785   -2.728488    0.040214
H      3.573722   -2.244787    1.682739
H      2.803910    0.098930    1.260066
H      1.510696   -1.098488    1.023976
H     -4.555854   -1.382884   -0.658623
H     -4.102401    0.141757    2.021724
H     -3.711639   -1.567654    1.734767
H     -2.569898    1.869093    1.350919
H      3.217390   -0.057574   -1.373145
H      1.782750    1.607831   -0.075827
H     -0.858465    3.454349    0.974072
H     -1.870828   -3.212974   -0.407952
