51

C     -4.485804    0.091513    2.481354
C      5.629874   -1.557541    1.785977
C      6.018052    0.231016    0.038062
C     -3.346203    2.356483   -1.840857
C     -4.485838   -0.823657    1.313770
C     -3.322449   -1.444798    1.020499
C     -3.228941   -2.357019   -0.102739
C     -2.219856   -2.048047   -1.132698
C      3.918360    0.147761    1.327594
C      3.294490    1.303361    0.687982
C      0.863346    1.576644    0.938126
C      5.090905   -0.342347    1.048321
C      1.914622    1.077003    0.198304
C     -0.469508    1.399106    0.546132
C     -2.284901   -0.775392   -1.883560
C     -0.752851    0.703151   -0.616649
C      0.289004    0.198927   -1.363444
C      1.630384    0.392306   -0.945837
C     -2.154811    0.503780   -1.102818
C      0.035255   -0.557883   -2.572297
O     -1.487513    1.912080    1.309438
O      2.605378   -0.146815   -1.758933
O      0.994685   -1.008017   -3.242370
O     -2.288376    1.524798   -2.108672
O     -1.307173   -0.758395   -2.948943
H     -5.025841    1.018130    2.149504
H     -5.035716   -0.347658    3.345177
H     -3.464898    0.393006    2.709484
H      4.850778   -1.994246    2.439770
H      6.538598   -1.260520    2.319979
H      5.933675   -2.259861    0.968960
H      7.085626    0.021074    0.336116
H      5.840056    1.315138   -0.022697
H      5.791230   -0.225126   -0.935749
H     -3.364589    3.109221   -2.683420
H     -3.250300    2.914852   -0.873576
H     -4.294056    1.780722   -1.883042
H     -5.364419   -1.011969    0.696726
H     -2.452134   -1.246118    1.647160
H     -3.132937   -3.426345    0.271618
H     -4.229498   -2.395771   -0.636595
H     -1.169963   -2.250919   -0.745064
H     -2.339754   -2.870079   -1.925026
H      3.361332   -0.389409    2.137784
H      3.343111    2.231366    1.334189
H      3.906095    1.604183   -0.212894
H      1.063937    2.121946    1.848344
H     -3.267943   -0.748270   -2.428740
H     -2.913798    0.623798   -0.356344
H     -2.439786    1.817162    1.076226
H      3.581061   -0.122324   -1.653632
