87

C      7.712875    1.915469    3.727928
C    -10.379434   -0.927306   -1.793694
C    -10.385372   -0.307632    0.731381
C     -1.341410   -2.722421   -2.443748
C      5.319358    2.172963    2.472218
C      6.421636    3.797318    1.044722
C      7.758157    2.328525    2.463003
C      6.412924   -1.601645   -2.867966
C      7.635807   -1.967395   -2.350664
C      5.677253   -0.590139   -2.303011
C      8.117058   -1.301813   -1.250766
C     -8.606305    0.366453   -0.786218
C     -0.269716   -2.876363   -0.219119
C     -7.887587    1.045617    0.303948
C     -0.181168   -2.124544    0.871016
C     -1.312607   -0.038162    0.706124
C     -2.425345   -0.739400    0.802546
C     -5.450223    1.381303    0.070882
C      4.436091    1.781177   -0.532001
C      0.033016   -0.850243   -1.641337
C     -4.542945   -2.397311    1.650825
C     -9.740777   -0.262831   -0.585270
C     -0.141701   -2.313386   -1.583277
C     -6.470301    0.573015    0.436556
C      0.049602   -0.665191    0.821677
C      6.170867    0.073181   -1.195669
C     -3.772693   -0.251304    0.703701
C      5.711061    1.091202   -0.428264
C     -4.834726   -1.088142    1.083164
C      7.405804   -0.283163   -0.659030
C      3.306059    1.076270   -0.540308
C     -4.112033    0.980296    0.199666
C     -6.162328   -0.692161    0.955839
C      6.629596    1.372197    0.563776
C      1.995282    1.719866   -0.646471
C      2.153457   -0.956079   -0.363926
C      6.541643    2.404380    1.621672
C      0.820594   -0.344503   -0.462015
N      7.642359    0.529026    0.403153
N      3.276516   -0.326274   -0.397184
N      0.915050    1.076114   -0.611044
O     -5.514728   -3.139554    2.009183
O     -3.120734    1.866901   -0.201625
O     -7.241821   -1.441546    1.297825
O      2.019692    3.126640   -0.792531
O      2.297111   -2.365652   -0.217638
H      6.736512    1.626786    4.141694
H      8.569009    1.840827    4.378234
H    -10.244809   -0.222140   -2.637373
H     -9.827600   -1.858281   -2.044641
H    -11.423452   -1.173067   -1.574568
H    -10.921578    0.666008    0.904387
H     -9.764506   -0.543436    1.586886
H    -11.158039   -1.136415    0.691840
H     -1.689849   -3.736316   -2.221864
H     -1.022392   -2.602064   -3.518176
H     -2.144512   -1.995261   -2.214378
H      4.381091    2.331982    1.894992
H      5.340121    2.858207    3.332163
H      5.303631    1.127423    2.799522
H      6.860107    3.821496    0.026058
H      5.395359    4.178799    1.102858
H      7.055315    4.465376    1.663287
H      8.742805    2.605257    2.084800
H      5.961678   -2.090261   -3.742187
H      8.205588   -2.783199   -2.828141
H      4.713429   -0.285056   -2.713705
H      9.094111   -1.590351   -0.835285
H     -8.165667    0.390573   -1.803173
H     -0.439052   -3.931166   -0.120523
H     -8.419842    0.881726    1.254061
H     -7.851880    2.154949    0.156330
H     -0.285900   -2.627037    1.828322
H     -1.346791    1.009326    0.555789
H     -2.274640   -1.826415    0.956823
H     -5.652390    2.376362   -0.338706
H      4.352755    2.861192   -0.605463
H      0.565185   -0.598487   -2.599319
H     -0.931697   -0.282705   -1.644941
H     -3.553764   -2.789430    1.794789
H      0.738713   -2.790055   -2.091572
H      0.622698   -0.266507    1.660933
H      8.532731    0.430212    0.964544
H     -3.316817    2.777775   -0.578076
H     -7.454194   -2.292024    1.657750
H      1.123623    3.605442   -0.809954
H      3.029996   -2.693799    0.433591
