81

C     -4.427973    3.024025   -0.061584
C     -5.209077    1.568664   -1.835769
C      5.292766    1.774291    1.759124
C      5.931920   -0.519265    1.351142
C      3.727602   -1.235120   -1.420813
C      0.810174   -2.039778   -0.950327
C     -0.013322    0.904167    1.226739
C     -0.378706    0.285420   -1.960948
C      1.077504    0.417393   -2.118083
C      3.269306   -0.910950    1.317761
C      5.004843    1.603924   -1.589351
C      3.796465    1.125391   -1.794894
C      1.879920   -1.339577    1.160971
C     -2.976659    1.294354   -0.917862
C     -0.948368   -1.344488    1.295796
C     -4.098685   -1.999836   -0.672649
C     -1.016830   -0.058268   -0.836515
C     -2.513666   -0.128765   -0.912160
C      3.695315    0.305150    0.553298
C      1.749509    0.213532   -0.816593
C      5.814054    1.130926   -0.486072
C     -2.221055   -1.909304    0.817854
C     -4.969434    0.688903    0.489548
C     -4.064826   -0.349823    1.059709
C     -4.376966    1.562595   -0.550747
C      5.138230    0.638077    0.728574
C      3.260788    0.098319   -0.894191
C      1.112329   -0.872208   -0.007827
C     -0.259422   -0.349800    0.422680
C     -3.155260   -1.024082    0.064964
O     -3.456021   -2.784607   -1.586883
O      7.055264    1.135377   -0.550146
O     -2.929584   -2.359575    1.961385
O     -6.153950    0.149529   -0.030080
O     -3.409604    0.115858    2.198059
H     -4.286894    3.727303   -0.880378
H     -3.557256    3.117545    0.626163
H     -5.328687    3.196432    0.553962
H     -5.989129    2.354597   -1.766100
H     -5.722950    0.628321   -2.021751
H     -4.555920    1.876053   -2.700822
H      4.784582    2.654778    1.275619
H      6.342436    2.045527    1.864098
H      4.757601    1.555772    2.685602
H      5.974545   -1.403572    0.723766
H      6.970683   -0.096350    1.483580
H      5.542972   -0.664614    2.365246
H      3.406953   -2.103966   -0.854081
H      3.498801   -1.248183   -2.506358
H      4.837926   -1.222375   -1.372624
H      1.209797   -2.989810   -0.521044
H      1.287230   -1.917404   -1.940870
H     -0.251131   -2.175255   -1.143168
H      0.913040    0.897835    1.804155
H     -0.829406    0.963244    2.008747
H     -0.092651    1.833956    0.671646
H     -0.971551    0.495711   -2.871684
H      1.235788    1.498879   -2.419397
H      1.489326   -0.165826   -2.963538
H      3.992616   -1.742913    1.065453
H      3.504108   -0.695996    2.403408
H      5.430341    2.375175   -2.251164
H      3.222347    1.487024   -2.615745
H      1.862009   -2.472435    1.178380
H      1.309804   -1.076315    2.102077
H     -2.799441    1.744509   -1.940723
H     -2.302356    1.895659   -0.249439
H     -1.078876   -0.946043    2.347430
H     -0.247374   -2.220417    1.459441
H     -4.613042   -2.651754    0.089954
H     -4.918144   -1.459079   -1.177860
H     -2.735571   -0.509549   -1.950275
H      3.110534    1.161246    0.949940
H      1.593709    1.171107   -0.232141
H     -2.065508   -2.858779    0.234405
H     -5.314642    1.314762    1.363670
H     -4.742466   -1.162562    1.465759
H     -2.526763   -2.507566   -1.719014
H     -2.678135   -3.280884    2.197727
H     -6.756175   -0.059569    0.705526
H     -3.949656    0.825329    2.603395
