87

C     -9.340563   -0.279565   -1.699859
C     10.904353    1.173468   -0.594984
C     10.113728   -1.248499   -0.852045
C      1.012368   -3.482773    1.811061
C     -5.916975   -1.585389   -1.802122
C     -6.858262    0.462878   -2.838265
C     -8.284972   -1.063426   -1.645423
C     -5.297271    2.745226    3.210818
C     -6.567078    2.413085    3.637245
C     -4.833585    2.309213    1.994669
C     -7.383541    1.637398    2.840889
C      8.721694    0.607199   -1.584038
C      0.598222   -1.299952    2.877750
C      7.685746   -0.359242   -2.022005
C      0.728169   -0.014767    2.581878
C      1.588778    0.677616    0.394922
C      2.757681    0.265978    0.790640
C      6.073049   -0.970839   -0.278105
C     -4.349838    0.955401   -0.902754
C     -0.148346   -1.715724    0.551053
C      3.617863    2.326609   -1.155552
C      9.869177    0.211875   -1.033012
C      0.056639   -2.276736    1.893681
C      6.400852   -0.116219   -1.275236
C      0.362484    0.558922    1.286756
C     -5.656016    1.533310    1.206456
C      4.028169    0.286823    0.127229
C     -5.521045    0.945287   -0.047801
C      4.404734    1.127629   -0.883983
C     -6.927904    1.194500    1.619382
C     -3.185438    0.581418   -0.425744
C      4.884980   -0.779230    0.432812
C      5.577975    0.969545   -1.619061
C     -6.709388    0.267274   -0.370505
C     -1.966713    0.573990   -1.241164
C     -1.915549   -0.270638    1.374213
C     -6.930346   -0.481685   -1.648780
C     -0.680174   -0.296900    0.600805
N     -7.532898    0.442817    0.664111
N     -3.029277    0.128877    0.887412
N     -0.883130    0.179832   -0.751751
O      4.046299    3.115816   -2.066090
O      4.629251   -1.696121    1.428759
O      6.007101    1.756543   -2.634024
O     -2.078175    1.022487   -2.571014
O     -1.928140   -0.702128    2.745606
H     -9.211213    0.790640   -1.746726
H    -10.364268   -0.638239   -1.701162
H     10.968558    2.025477   -1.310190
H     10.715979    1.529270    0.431982
H     11.888338    0.656272   -0.598361
H      9.357422   -1.692563   -0.171789
H     10.105015   -1.718163   -1.852064
H     11.108114   -1.426366   -0.403326
H      1.826797   -3.266698    1.088978
H      0.420292   -4.346281    1.456989
H      1.362772   -3.691179    2.822274
H     -5.142443   -1.466814   -1.016698
H     -5.496646   -1.531281   -2.827505
H     -6.438107   -2.556265   -1.714806
H     -6.744908    1.525627   -2.517391
H     -7.774909    0.430925   -3.463806
H     -6.021146    0.158925   -3.527040
H     -8.411984   -2.126993   -1.598333
H     -4.645294    3.353124    3.822466
H     -6.915207    2.773765    4.617331
H     -3.853452    2.561658    1.615358
H     -8.391451    1.389163    3.206248
H      8.557506    1.671218   -1.707166
H      0.885307   -1.646616    3.838324
H      7.517403   -0.216834   -3.128512
H      8.002608   -1.394632   -1.887657
H      1.129638    0.683730    3.328797
H      1.432760    1.053338   -0.581861
H      2.715122   -0.145442    1.842745
H      6.721910   -1.791187   -0.034032
H     -4.424786    1.269062   -1.934574
H     -0.883332   -2.292012   -0.051426
H      0.786754   -1.708867   -0.063101
H      2.709124    2.597581   -0.642800
H     -0.890503   -2.707446    2.282150
H     -0.036173    1.593077    1.337413
H     -8.493033    0.060540    0.726867
H      3.827196   -1.668987    1.987498
H      5.793041    2.514926   -3.148598
H     -1.228190    1.119814   -3.114465
H     -2.609298   -0.229351    3.323136
