38

C      2.932715    0.421605    1.335044
C      4.374031    0.463837   -0.781415
C     -0.295544    3.027677   -0.943334
C      0.422025    1.857413   -0.816119
C     -1.607037    3.121626   -0.492820
C      2.005023   -0.184232   -0.814390
C     -1.786812   -1.510258    1.106607
C     -3.460972    0.459152    1.075624
C      3.073840    0.217416   -0.136620
C     -2.263808   -0.102698    0.823367
C     -0.179498    0.772380   -0.232655
C     -2.231241    2.032176    0.100194
C      0.684569   -0.430403   -0.134131
C     -1.220472   -1.967060   -0.224953
C     -1.484318    0.861250    0.216653
C     -1.400852   -3.451345   -0.326106
N     -3.414742    1.747500    0.629414
N      0.113038   -1.660674   -0.492788
O     -0.441430   -4.209034   -0.611977
O     -2.640850   -4.029601   -0.104937
H      2.065767    1.089508    1.550475
H      2.872456   -0.540033    1.886690
H      3.823595    0.955730    1.724295
H      4.197164    1.012632   -1.730755
H      4.992853   -0.426119   -0.919231
H      4.961781    1.170997   -0.137481
H      0.122971    3.917624   -1.394361
H      1.437360    1.751076   -1.153885
H     -2.179152    4.037496   -0.588340
H      2.123381   -0.328018   -1.882026
H     -0.964375   -1.406988    1.842317
H     -2.615035   -2.135414    1.447619
H     -4.285785   -0.060496    1.551524
H      0.937691   -0.507179    0.968751
H     -1.880571   -1.558361   -1.044174
H     -4.203200    2.426828    0.692466
H      0.353857   -1.945824   -1.447134
H     -2.938425   -4.890187   -0.541408
