80

C      3.155467   -2.957900   -1.170885
C      4.856272    3.203272   -0.753536
C     -5.828811    0.817994    1.901955
C     -5.088801    2.579101    0.397230
C     -3.578936   -1.828173    0.335713
C      0.282872   -2.292282   -0.232782
C      0.723354    1.259182    0.958070
C     -1.809542   -0.165759    2.152397
C     -3.284831    0.086133    2.062414
C     -5.399685   -0.601726   -1.375440
C     -3.887311   -0.450797   -1.614384
C      3.911078   -0.762806   -1.937442
C      5.238557    0.843104   -0.599132
C      2.236540   -1.570882    1.437155
C      0.481920   -0.266731   -1.561514
C      3.379664   -1.531080   -0.779315
C      5.559071    2.030942   -0.148327
C      4.228753    0.689343   -1.655267
C     -1.134027   -0.249158    0.850570
C      2.369884   -0.890391    0.049696
C     -1.027407   -0.467315   -1.575665
C     -3.652535    0.612774    0.664927
C     -5.853434    0.470985   -0.488624
C      0.947802   -1.010951    1.979096
C     -1.744605   -0.390980   -0.315387
C      6.567520    2.233535    0.911227
C     -5.051279    1.061609    0.604538
C     -3.233224   -0.465028   -0.284923
C      0.935027   -0.927833   -0.328060
C      0.348091   -0.160055    0.865713
O      3.155039    1.515180   -1.537679
O     -1.540960   -0.684896   -2.687609
O     -6.980753    0.924362   -0.651804
O      1.260398   -0.132615    3.014624
O      6.837239    3.384530    1.305956
O      7.171834    1.094512    1.418049
H      4.083903   -3.225206   -1.776868
H      2.344826   -3.140819   -1.873050
H      3.229840   -3.662267   -0.316491
H      5.467963    4.097895   -0.514516
H      3.865077    3.370353   -0.286221
H      4.815263    3.131413   -1.858631
H     -5.754942   -0.215230    2.245997
H     -5.589568    1.584542    2.658025
H     -6.911282    0.983937    1.627305
H     -4.700027    2.861971   -0.602414
H     -4.416194    3.032437    1.153499
H     -6.115268    2.981834    0.500079
H     -2.851806   -2.171716    1.062661
H     -3.530989   -2.568576   -0.516497
H     -4.620506   -1.855922    0.695738
H      0.954149   -3.111985    0.042133
H     -0.528732   -2.347501    0.535404
H     -0.268535   -2.513076   -1.196292
H      0.961791    1.813909    0.065098
H     -0.053580    1.878281    1.499717
H      1.627670    1.336033    1.631843
H     -1.587206   -1.071202    2.747854
H     -1.391099    0.679047    2.779358
H     -3.634618    0.864862    2.767371
H     -3.820061   -0.855647    2.279546
H     -5.845485   -0.498628   -2.408350
H     -5.645965   -1.618447   -1.051018
H     -3.623806   -1.406722   -2.125859
H     -3.765988    0.443654   -2.218678
H      4.881443   -1.195677   -2.314438
H      3.246770   -0.747986   -2.829259
H      5.717164   -0.023991   -0.193565
H      2.316566   -2.645969    1.396661
H      3.119997   -1.232322    2.061676
H      0.586298    0.812385   -1.644460
H      0.913436   -0.709028   -2.491452
H      4.308530   -1.615643   -0.083541
H      4.767441    1.031787   -2.604521
H      2.668572    0.138984    0.287467
H     -2.942669    1.484379    0.526855
H      0.257553   -1.799736    2.333389
H      2.703773    1.704842   -2.398081
H      2.215483   -0.202897    3.277710
H      7.994574    1.204450    1.997951
