41

C     -1.666115    2.930420   -0.117591
C      3.777544   -0.167690   -0.741204
C      2.719885   -0.969642    1.338927
C     -2.161742   -1.098956   -1.670047
C      0.958590   -0.913553   -1.208936
C     -0.123577   -1.683739   -0.481846
C     -2.211862   -1.425907    0.704287
C     -3.138031   -0.981254    1.553237
C      0.290005    0.718056    0.530148
C     -3.042033    1.480231    1.058126
C     -1.965452    1.514464    0.288643
C      1.390230    0.263383   -0.403337
C     -1.016524    0.558475   -0.254048
C      2.700481    0.090080    0.301654
C     -1.406760   -0.847141   -0.353543
O      3.015883    1.325852    0.894873
O     -3.588341    0.327194    1.603935
H     -2.575442    3.482499   -0.365534
H     -0.995222    2.972283   -0.989885
H     -1.096581    3.367832    0.743478
H      4.716213    0.294772   -0.385129
H      3.881052   -1.234057   -0.981895
H      3.450148    0.388479   -1.666992
H      3.568278   -0.747905    2.051489
H      1.827804   -1.064571    1.951965
H      3.031423   -1.927584    0.843072
H     -2.197924   -2.168684   -1.915257
H     -3.213163   -0.775716   -1.463681
H     -1.784797   -0.458516   -2.478096
H      1.755780   -1.618793   -1.457219
H      0.496838   -0.603640   -2.191053
H      0.195666   -2.059060    0.501393
H     -0.353443   -2.598932   -1.093871
H     -2.037628   -2.490291    0.866758
H     -3.559845   -1.698910    2.244904
H      0.441021    1.803759    0.710564
H      0.258524    0.145440    1.474672
H     -3.548816    2.407315    1.291336
H      1.538834    1.115088   -1.131683
H     -0.751085    0.915962   -1.295797
H      2.420187    1.432957    1.693181
