67

C     -9.551989   -1.338226    1.724331
C     -8.941775   -0.450602    2.575712
C     -8.805234   -1.924576    0.739338
C      4.060663    0.431971   -0.257722
C     -7.606069   -0.165035    2.430928
C     -7.452352   -1.618656    0.612905
C      4.780444    0.373347   -1.341370
C      2.930502    1.419520   -0.118891
C      6.239459   -1.471781   -0.526477
C      6.559357   -0.518081   -2.717712
C     -5.420432   -0.379661    1.366871
C      0.629553    2.092628    2.726877
C      0.749919    3.741477    1.039188
C      7.292334   -2.309736   -0.800545
C      7.610065   -1.370348   -2.963159
C      0.781674    3.090780    3.663103
C      0.902509    4.734702    2.000429
C     -4.561607   -0.869376    0.458951
C      1.499775   -0.312804   -1.074695
C     -1.429304   -2.230829   -2.332055
C     -6.819531   -0.738326    1.447168
C      5.866703   -0.561046   -1.500806
C      0.612099    2.414563    1.386233
C      1.688899    0.582148    0.103213
C      7.986432   -2.275983   -2.003825
C      0.921513    4.425321    3.344341
C      0.118856   -0.835226   -1.209289
C     -3.178092   -0.453274    0.453765
C     -0.145691   -1.752795   -2.220983
C     -2.462215   -1.839749   -1.484769
C     -2.216485   -0.942678   -0.490969
C      0.455124    1.410197    0.319153
C     -0.892929   -0.444505   -0.370370
O      9.043230   -3.130536   -2.255637
O      1.071984    5.391944    4.327647
O     -2.814171    0.390817    1.340395
O      0.892359   -2.136293   -3.060779
O     -3.692825   -2.369635   -1.677464
O     -0.589686    0.471880    0.625481
H    -10.592626   -1.555512    1.843125
H     -9.547082    0.008269    3.354161
H     -9.283352   -2.623809    0.067524
H      4.251164   -0.220886    0.567743
H     -7.166293    0.539030    3.122545
H     -6.921602   -2.113812   -0.182477
H      4.534039    1.059295   -2.132313
H      2.805027    1.931924   -1.104101
H      3.121637    2.141905    0.683191
H      5.721662   -1.515372    0.403212
H      6.256740    0.206207   -3.482667
H     -4.996592    0.328848    2.068335
H      0.522510    1.064497    2.987473
H      0.748457    4.093518    0.009292
H      7.598571   -3.026450   -0.055412
H      8.127907   -1.310370   -3.921402
H      0.796706    2.847348    4.724242
H      1.009612    5.775573    1.702650
H     -5.013877   -1.568449   -0.220120
H      2.143707   -1.223862   -0.889055
H      1.862341    0.141921   -2.020850
H     -1.643412   -2.956723   -3.130586
H      1.865271    0.017826    1.048436
H      0.228513    1.939713   -0.625675
H      9.514326   -3.067218   -3.142821
H      1.171343    6.359285    4.046499
H      0.784097   -2.783874   -3.803249
H     -4.011859   -3.020364   -2.349474
