40

C      2.532147    0.705311    1.866407
C      3.092850    0.870823   -0.549249
C     -2.744740   -1.889506    0.866418
C     -1.581831    4.076966   -0.050415
C     -0.929545   -0.642307   -2.232044
C      0.616719   -1.071015    1.146256
C     -1.934789   -1.320346   -1.361840
C     -0.606776    0.731479   -1.731910
C     -0.355108   -2.039477    0.458347
C      1.308427    2.238475    0.493645
C     -1.477917    0.218815    0.465844
C      0.935389   -0.040077    0.085698
C      0.079771    2.116217    0.092643
C      1.977303    0.925156    0.471546
C     -1.591308   -1.249733    0.114221
C     -0.265410    0.758500   -0.252440
N     -0.817309    3.182316    0.006401
H      3.154931    1.590588    2.106000
H      1.747301    0.592736    2.610982
H      3.220515   -0.179184    1.872988
H      2.751291    1.376735   -1.471549
H      3.963587    1.481769   -0.173396
H      3.404284   -0.166124   -0.754624
H     -3.196690   -2.639248    0.217671
H     -3.452611   -1.092063    1.170990
H     -2.379794   -2.412550    1.774348
H     -0.042311   -1.287262   -2.389132
H     -1.424276   -0.510335   -3.239918
H      1.534290   -1.581925    1.459280
H      0.112771   -0.659237    2.015406
H     -2.080599   -2.382087   -1.646149
H     -2.904624   -0.753633   -1.461625
H     -1.560839    1.330715   -1.823339
H      0.122816    1.258295   -2.356928
H      0.182410   -2.360336   -0.482039
H     -0.523335   -2.871441    1.154629
H      1.815528    3.186778    0.813255
H     -2.389367    0.702484    0.004615
H     -1.525266    0.440045    1.526906
H      1.232114   -0.636319   -0.817897
