81

C     -5.202709   -0.724134   -2.357868
C     -3.813392   -2.448025   -1.450428
C      6.090656   -0.206397    0.853159
C      5.286234   -2.459208    0.412327
C      3.944723    1.815056   -0.218367
C      1.202592    1.642666    1.811997
C     -0.375791   -1.474341    0.537522
C     -0.355417    1.654216   -1.005637
C      1.100864    1.845185   -1.022633
C      3.376932   -0.467388    1.645721
C      4.551453   -0.391326   -2.394286
C      3.491989    0.287362   -1.995411
C      1.856993   -0.683018    1.716694
C     -2.970020   -0.128564   -1.437542
C     -1.033682    0.208032    2.122803
C     -3.153645    2.176322    1.545194
C     -1.027979    0.833256   -0.202618
C     -2.515685    0.794668   -0.352901
C      3.705649   -0.639685    0.207945
C      1.719554    0.610656   -0.420447
C      5.522155   -0.939840   -1.430832
C     -2.509360   -0.085758    2.041741
C     -4.899893   -0.825560    0.036766
C     -4.615604    0.419766    0.794576
C     -4.157155   -0.962754   -1.245426
C      5.135075   -0.988246   -0.017874
C      3.194980    0.550827   -0.556134
C      1.131028    0.397829    0.943005
C     -0.323842   -0.004188    0.802583
C     -3.161777    0.735235    0.970337
O     -3.876408    2.946763    0.635854
O      6.643888   -1.358302   -1.766569
O     -2.817779   -1.420152    2.030279
O     -6.306682   -0.863798   -0.140217
O     -5.295424    0.406350    2.000169
H     -6.159609   -1.202811   -2.050834
H     -4.891617   -1.181723   -3.301440
H     -5.364042    0.355178   -2.502324
H     -4.799637   -2.965140   -1.582709
H     -3.160545   -2.608735   -2.304696
H     -3.427376   -2.842664   -0.485266
H      5.681795   -0.034789    1.856651
H      6.481917    0.696128    0.357247
H      6.996069   -0.864826    1.004274
H      6.200397   -2.837077   -0.077125
H      5.308199   -2.523872    1.506051
H      4.394624   -2.994267    0.002818
H      3.374372    2.745927   -0.394107
H      4.374928    1.812431    0.806380
H      4.850647    1.928298   -0.889957
H      1.099444    1.325311    2.871594
H      2.194253    2.136271    1.753083
H      0.460605    2.405657    1.513917
H     -1.374063   -1.867276    0.258093
H     -0.202898   -1.978474    1.529607
H      0.325632   -1.829142   -0.233917
H     -0.918909    2.263744   -1.740261
H      1.442413    1.991124   -2.066876
H      1.364543    2.777302   -0.486294
H      3.704847    0.428745    2.136667
H      3.805571   -1.338867    2.213005
H      4.726534   -0.557750   -3.443770
H      2.817073    0.665014   -2.738389
H      1.762138   -1.688797    1.206887
H      1.596007   -0.696388    2.769029
H     -2.077361   -0.774376   -1.711456
H     -3.092880    0.402880   -2.441005
H     -0.916988    1.232421    2.476365
H     -0.611296   -0.559538    2.823444
H     -3.546463    2.197252    2.560773
H     -2.105458    2.545940    1.482452
H     -2.853668    1.813928   -0.759412
H      3.103643   -1.521039   -0.168595
H      1.316319   -0.245421   -1.048377
H     -2.931151    0.290335    3.016901
H     -4.694600   -1.723189    0.682349
H     -5.056861    1.276795    0.203538
H     -3.331149    3.611800    0.158302
H     -3.394754   -1.739168    2.738339
H     -6.587271    0.060240   -0.340730
H     -5.425899    1.359100    2.274159
