69

C      9.430734    1.047938    0.464498
C      8.935536    0.008004   -0.295646
C      8.549036    2.040138    0.842535
C     -3.942206   -0.639130   -0.317197
C      7.603481   -0.043567   -0.668573
C      7.203923    1.985831    0.464673
C     -4.921818   -1.088818    0.432294
C     -3.022743   -1.559475   -0.981924
C     -5.836253    1.149949    1.054145
C     -6.873283   -0.784739    1.892294
C      5.302787    0.849465   -0.714774
C     -0.640827   -0.236057   -3.407809
C     -2.033795    1.438411   -2.514176
C     -6.765613    1.949861    1.730322
C     -7.801541    0.002795    2.567994
C     -0.918108    0.254867   -4.665170
C     -2.321642    1.942871   -3.774652
C      4.553367    0.090979    0.351547
C     -1.491894   -1.612431    0.914466
C      1.735025   -1.948411    2.888737
C      6.724837    0.940402   -0.294724
C     -5.867491   -0.223934    1.118304
C     -1.204578    0.360128   -2.304915
C     -1.588614   -1.386523   -0.579329
C     -7.754921    1.376430    2.492294
C     -1.749942    1.335832   -4.871815
C     -0.064313   -1.491725    1.304941
C      3.122280   -0.061882    0.035192
C      0.394576   -2.039506    2.494077
C      2.642404   -1.299239    2.087136
C      2.202749   -0.751321    0.906829
C     -0.959341   -0.091656   -0.919941
C      0.861106   -0.843959    0.514388
O     -8.697255    2.131862    3.179627
O     -2.011404    1.811070   -6.172696
O      2.724349    0.451297   -1.063441
O     -0.474690   -2.692814    3.322827
O      3.990860   -1.206007    2.481022
O      0.455712   -0.268906   -0.698961
H     10.489534    1.059920    0.742953
H      9.617142   -0.774042   -0.597057
H      8.912791    2.872353    1.442327
H     -3.819007    0.418379   -0.440055
H      7.268204   -0.883970   -1.266283
H      6.524017    2.769467    0.767513
H     -5.042082   -2.174169    0.554409
H     -3.358696   -2.601559   -0.810990
H     -3.043624   -1.443462   -2.106590
H     -5.080339    1.645434    0.470557
H     -6.905525   -1.867150    1.948735
H      5.257628    0.344152   -1.712625
H      4.868549    1.859032   -0.876744
H      0.008154   -1.077476   -3.267009
H     -2.516493    1.968365   -1.677414
H     -6.705416    3.004111    1.653937
H     -8.564446   -0.492230    3.157029
H     -0.480008   -0.206278   -5.540291
H     -2.971611    2.786793   -3.927711
H      5.010577   -0.910936    0.405990
H      4.650533    0.683371    1.284172
H     -1.941319   -2.597268    1.191128
H     -2.023552   -0.769810    1.436652
H      2.076284   -2.382244    3.820844
H     -0.941019   -2.203386   -1.025415
H     -1.284989    0.686125   -0.209473
H     -9.564747    2.359851    2.669035
H     -2.808907    1.411597   -6.668864
H     -1.442175   -2.781264    3.096685
H      4.320052   -1.601735    3.337817
