69

C     -6.617329   -0.413385   -2.588098
C     -7.323923   -1.005414   -1.559716
C     -5.606312    0.489798   -2.364143
C      3.860647    0.072111   -0.683511
C     -6.976040   -0.654202   -0.260543
C     -5.297076    0.807363   -1.047101
C      4.376240    0.950908   -1.501140
C      2.644973   -0.716467   -1.108780
C      5.997276    2.664001   -2.146912
C      6.224824    1.696418   -0.022754
C     -5.595818    0.623326    1.389338
C      1.185795   -3.243460    0.563845
C     -0.856196   -3.374393   -0.583678
C      7.095394    3.449773   -1.897302
C      7.334971    2.487507    0.235649
C      1.079913   -4.565068    0.959321
C     -0.987856   -4.698376   -0.202361
C     -4.524046   -0.277487    1.953779
C      1.196938    1.038274   -0.219288
C     -1.054946    2.452004    2.427717
C     -5.972618    0.243772    0.009189
C      5.529629    1.755948   -1.201923
C      0.235100   -2.620690   -0.207116
C      1.482499   -0.462729   -0.156075
C      7.783510    3.377515   -0.705657
C     -0.016419   -5.304070    0.574657
C      0.051409    1.295920    0.697742
C     -3.272646   -0.277310    1.195640
C      0.078274    2.309593    1.627966
C     -2.127854    1.624630    2.286762
C     -2.140311    0.614400    1.351514
C      0.302434   -1.208891   -0.660762
C     -1.032893    0.454935    0.550959
O      8.886014    4.166805   -0.455734
O     -0.190417   -6.640335    0.935411
O     -3.146971   -1.170594    0.275909
O      1.129714    3.164075    1.806254
O     -3.201401    1.861493    3.137885
O     -0.949360   -0.547076   -0.433241
H     -6.869318   -0.671039   -3.627690
H     -8.106674   -1.706931   -1.800904
H     -5.081380    0.927150   -3.202244
H      4.297733   -0.089196    0.284932
H     -7.542612   -1.129982    0.532147
H     -4.505618    1.514445   -0.870582
H      3.886816    1.071349   -2.475192
H      2.345421   -0.402706   -2.120939
H      2.958669   -1.774749   -1.110906
H      5.462225    2.735851   -3.102171
H      5.893614    0.997287    0.749187
H     -6.509323    0.429730    2.027527
H     -5.380884    1.684221    1.505226
H      2.042449   -2.704565    0.880956
H     -1.614957   -2.927439   -1.181677
H      7.447140    4.157587   -2.653587
H      7.858073    2.410620    1.181825
H      1.840619   -5.046161    1.570149
H     -1.838024   -5.272236   -0.500291
H     -4.983204   -1.308074    1.992279
H     -4.366808   -0.013200    3.002347
H      0.847304    1.217287   -1.268954
H      2.103542    1.608393    0.015826
H     -1.046544    3.246652    3.164508
H      1.776496   -0.685384    0.881190
H      0.385915   -1.252508   -1.786604
H      9.830251    3.913003   -0.668945
H      0.530426   -7.070117    1.505201
H      1.976851    3.131814    1.274765
H     -3.223320    2.588282    3.828920
