73

C      8.384571   -1.199243   -3.220144
C     -4.292087    0.188825   -1.221078
C     -4.747007    1.052589   -2.095997
C     -3.061439   -0.637446   -1.460664
C     -6.257458    2.749741   -2.971974
C     -6.721462    1.854190   -0.812691
C      6.475384   -0.256685    0.415233
C      5.202571   -2.246293    0.292960
C      4.917181   -0.702147    2.267100
C     -0.775821   -2.132821    1.960852
C     -1.473053   -3.532124    0.207618
C     -7.351181    3.569652   -2.904839
C     -7.816042    2.688311   -0.769000
C     -0.932230   -3.170838    2.851197
C     -1.633616   -4.583264    1.095641
C      7.079594   -0.586116   -0.764183
C      5.816094   -2.570770   -0.895922
C      3.846556    0.324881    2.168810
C     -1.791516    1.187313   -0.495368
C      0.636267    3.136976    1.588213
C     -5.927106    1.882666   -1.930723
C      5.511859   -1.106821    0.958880
C     -1.044110   -2.289688    0.609891
C     -2.072395   -0.288826   -0.368998
C     -8.156037    3.549747   -1.787469
C     -1.360578   -4.408438    2.443643
C      6.761098   -1.750810   -1.443656
C     -0.578237    1.565934    0.299777
C      2.656179   -0.017072    1.389379
C     -0.487375    2.810446    0.854292
C      1.675696    2.214557    1.769561
C      1.595730    0.967802    1.220005
C     -0.881162   -1.171963   -0.383209
C      0.447983    0.662446    0.481408
O     -9.273997    4.369811   -1.687767
O     -1.520628   -5.466125    3.346031
O      2.567369   -1.162485    0.875251
O     -1.539050    3.717939    0.660585
O      2.751317    2.651313    2.522327
O      7.416203   -2.008014   -2.626773
O      0.336956   -0.564935   -0.078642
H      9.388088   -1.366965   -2.752494
H      8.182783   -0.117736   -3.180326
H      8.488221   -1.549533   -4.279086
H     -4.821924    0.066998   -0.293351
H     -4.185006    1.153222   -3.030852
H     -2.649929   -0.367537   -2.455815
H     -3.289906   -1.720264   -1.505069
H     -5.655284    2.799996   -3.868092
H     -6.460870    1.183985   -0.014847
H      6.734753    0.668717    0.945997
H      4.470410   -2.940431    0.709274
H      5.757600   -0.266216    2.861336
H      4.563226   -1.642508    2.778448
H     -0.438220   -1.150651    2.266892
H     -1.701076   -3.730440   -0.826384
H     -7.592187    4.237533   -3.725347
H     -8.461251    2.679741    0.113857
H     -0.713864   -3.007095    3.885829
H     -1.968706   -5.530813    0.740077
H      7.836478    0.085593   -1.186764
H      5.563373   -3.493822   -1.434400
H      3.578032    0.662448    3.215080
H      4.356742    1.237472    1.717185
H     -1.618104    1.516617   -1.538652
H     -2.627413    1.795628   -0.097270
H      0.728507    4.109416    2.032846
H     -2.586200   -0.425413    0.619626
H     -0.805832   -1.638081   -1.420578
H     -9.163354    5.308489   -1.274212
H     -0.678850   -6.042696    3.469417
H     -1.432504    4.624868    1.087093
H      2.817245    3.567263    2.930860
