44

C      3.875325    0.241691    0.847775
C      2.505273    1.983915   -0.188704
C     -0.067140   -1.738672   -1.830246
C     -2.280028    2.620833    0.883691
C      1.784085   -1.632526    0.743779
C      0.462263   -2.297702    0.561074
C     -3.143326    0.588387   -0.267421
C     -2.624040   -0.673632   -0.941828
C      2.640904    0.513270   -0.014296
C      1.472244   -0.144012    0.660768
C      0.181255    0.008696   -0.048384
C     -0.952338    0.490680    0.832607
C     -0.281595   -1.396437   -0.401764
C     -1.893391    1.408220    0.071387
C     -1.722480   -1.367914    0.023886
O     -1.342018    1.799851   -1.140702
O     -2.132851   -2.663833    0.264696
O     -1.627659   -0.669763    1.250871
H      4.664169    0.968228    0.645877
H      3.554292    0.313563    1.903277
H      4.245654   -0.805892    0.656828
H      2.120640    2.276820   -1.199015
H      1.927252    2.486906    0.621138
H      3.534016    2.426797   -0.139552
H     -0.981015   -1.968705   -2.402161
H      0.504677   -0.884031   -2.297787
H      0.588097   -2.632043   -1.900723
H     -2.640761    2.302074    1.883481
H     -1.411356    3.295791    0.925411
H     -3.075049    3.145354    0.316338
H      2.266692   -1.881502    1.712581
H      2.444592   -1.918002   -0.125441
H      0.529156   -3.338520    0.183826
H     -0.060410   -2.288847    1.562231
H     -3.835635    1.154361   -0.898627
H     -3.600566    0.245351    0.697499
H     -2.125494   -0.342592   -1.870616
H     -3.522958   -1.309215   -1.181426
H      2.856681    0.055313   -1.000987
H      1.359172    0.205741    1.697901
H      0.206973    0.667437   -0.936840
H     -0.575814    1.053836    1.724866
H     -1.499965    2.774155   -1.264566
H     -2.327525   -3.073430   -0.620700
