73

C     -0.400370   -4.113481    4.390869
C     -3.776234    0.635204    0.547233
C     -3.820888   -0.238621   -0.410464
C     -2.713044    1.048752    1.433242
C     -6.214228    0.014819   -1.120950
C     -4.847359   -1.535066   -2.238930
C      6.515145    0.342957   -1.086303
C      4.537785   -0.897413   -1.430223
C      5.632798   -0.957939    0.821810
C     -1.462274    1.900197   -1.649401
C     -0.378914    3.098459    0.065806
C     -7.306286   -0.321389   -1.937471
C     -5.894586   -1.891286   -3.058643
C      6.445052    0.762548   -2.379645
C      4.466955   -0.472270   -2.740413
C     -1.739435    3.063992   -2.328302
C     -0.640572    4.282861   -0.589184
C      4.887187   -0.008376    1.738199
C     -1.325517   -1.057924    1.745893
C      1.714651   -2.517723    3.361302
C     -4.982123   -0.562348   -1.238362
C      5.557519   -0.499534   -0.584898
C     -0.786684    1.893018   -0.456356
C     -1.403476    0.397617    1.424688
C     -7.102799   -1.277130   -2.891247
C      5.430956    0.371383   -3.233286
C     -1.320662    4.260523   -1.785055
C      0.129265   -1.279027    2.121781
C      3.474796    0.123159    1.427145
C      2.757601   -1.732695    2.857224
C      0.393070   -2.300801    3.000545
C      2.449981   -0.721811    1.981456
C     -0.513999    0.639468    0.233525
C      1.114287   -0.474934    1.594222
O     -8.168647   -1.629478   -3.714639
O      5.420451    0.842686   -4.556718
O     -1.572806    5.472637   -2.427459
O      3.129341    1.047887    0.610372
O      4.047158   -2.029172    3.277846
O     -0.657317   -3.061737    3.482337
O      0.831504    0.555411    0.706175
H      0.028814   -5.002314    3.903311
H      0.329582   -3.806741    5.191717
H     -1.324530   -4.449157    4.910239
H     -4.748912    1.164193    0.712632
H     -2.898798   -0.769539   -0.618527
H     -3.053868    1.043671    2.531815
H     -2.501570    2.171386    1.308663
H     -6.348328    0.778233   -0.347876
H     -3.891471   -2.015701   -2.366868
H      7.325354    0.660328   -0.418961
H      3.771310   -1.563318   -1.050515
H      6.691367   -0.980796    1.189529
H      5.275166   -1.990351    0.850164
H     -1.806647    0.961166   -2.105865
H      0.155618    3.089795    1.009895
H     -8.227972    0.200828   -1.751129
H     -5.785674   -2.640421   -3.827606
H      7.197249    1.423522   -2.772463
H      3.662990   -0.793573   -3.384672
H     -2.284043    3.036603   -3.284496
H     -0.324606    5.220686   -0.185714
H      5.378542    1.008192    1.521821
H      5.150641   -0.178623    2.791285
H     -1.977081   -1.320215    2.599734
H     -1.470515   -1.716375    0.875773
H      1.948621   -3.316699    4.052762
H     -0.823971    0.904258    2.292144
H     -0.611551   -0.259663   -0.434548
H     -8.826718   -2.378495   -3.484831
H      5.884953    0.333785   -5.278286
H     -2.062675    5.546849   -3.303122
H      4.261443   -2.760142    3.910276
