26

C      2.274811   -0.660158   -2.290120
C     -2.018344   -0.857083    0.924647
C     -2.174758    1.657574    1.118925
C      2.180033   -0.383591    0.134279
C      1.077067   -0.540622    1.175599
C      0.061993   -0.434149   -1.261428
C      1.548330   -0.502427   -1.207410
C      0.131203    0.595662    1.026542
C     -0.378522    0.691120   -0.371143
C     -1.302404    0.445549    0.762428
H      1.839593   -0.748751   -3.274365
H      3.356748   -0.704650   -2.204327
H     -1.385261   -1.719835    1.118413
H     -2.712745   -0.761739    1.801984
H     -2.628752   -1.045521    0.016384
H     -1.581106    2.406638    1.694720
H     -2.528203    2.059001    0.143662
H     -3.060488    1.360181    1.698925
H      2.532044    0.672463    0.224248
H      2.998808   -1.090331    0.286642
H      0.645928   -1.536915    1.122334
H      1.604967   -0.470034    2.169750
H     -0.317123   -0.256325   -2.275444
H     -0.335608   -1.412777   -0.925678
H      0.476312    1.536113    1.547166
H     -0.304522    1.700608   -0.820618
