43

C     -0.852888   -3.736896    0.198568
C     -1.217877   -2.487744    0.980951
C      4.677228    1.535455    1.303857
C      3.611377    2.409323    1.272248
C      4.503775    0.283412    0.759252
C      2.391606    2.026479    0.701001
C      3.296914   -0.082849    0.198898
C     -3.852454    0.030728    0.847088
C     -2.653123    1.562263   -0.428281
C     -4.601992    1.060227    1.373261
C     -3.418184    2.585871    0.112571
C     -2.010044   -0.810680   -0.684863
C      1.270010    0.059768   -1.907289
C     -2.851855    0.244669   -0.071413
C      2.220307    0.775384    0.157508
C      0.894674    0.367858   -0.459942
C      0.344186   -0.776079    0.263027
N     -4.378326    2.318741    1.002908
N     -0.946271   -1.292130    0.136414
O      1.820635    1.221998   -2.501823
O      1.158693   -1.341399    1.095700
Cl     0.689525    0.000000    0.000000
H     -1.289351   -4.590406    0.736680
H     -1.293838   -3.702837   -0.806382
H      0.257858   -3.876598    0.166571
H     -2.300065   -2.567871    1.182169
H     -0.644957   -2.414138    1.902914
H      5.613290    1.856093    1.752624
H      3.746601    3.396837    1.701236
H      5.341133   -0.395034    0.787226
H      1.559886    2.711377    0.677485
H      3.140715   -1.073529   -0.238588
H     -4.049335   -1.008319    1.156461
H     -1.890047    1.854202   -1.157327
H     -5.372579    0.850728    2.086947
H     -3.221500    3.619156   -0.203230
H     -1.737153   -0.561727   -1.729422
H     -2.741317   -1.678186   -0.833036
H      2.061278   -0.688932   -1.926611
H      0.380370   -0.159772   -2.490076
H      0.234836    1.231025   -0.354828
H      2.797786    1.243530   -2.385897
H     -0.689525    0.000000    0.000000
