43

C      2.084474    1.974263    0.727910
C      0.674012    4.552902    0.005740
C     -3.876474    1.401017   -1.777511
C      2.444441   -0.108273   -1.117920
C      2.293913   -2.022413    0.209406
C      3.711669   -0.482631   -1.489202
C      3.558636   -2.414241   -0.150909
C     -1.806087   -2.974552    1.893043
C     -1.761359   -3.734756    0.626831
C      0.652596    1.946725    0.224026
C      0.052607    3.166546   -0.009373
C     -3.636613    0.235038   -0.878755
C      1.709215   -0.842270   -0.276655
C      4.305512   -1.639938   -1.020671
C     -1.523062   -1.515013    1.535924
C     -0.117012    0.864314    0.139966
C      0.414007   -0.524607    0.252092
C     -2.555777   -1.039782    0.594498
C     -1.429392    1.074208   -0.152676
Cl     5.900166   -2.156054   -1.457494
N     -0.197712   -1.509894    0.896592
N     -4.381123   -0.833531   -0.587284
N     -3.707419   -1.589941    0.305155
N     -2.529666    0.101733   -0.158052
O     -0.691915   -4.010862    0.135743
S     -1.609959    2.752843   -0.335444
H      2.792786    2.374110    0.011800
H      2.126343    2.720752    1.586890
H      2.347584    1.041897    1.260577
H      0.006998    5.208555   -0.591456
H      1.686054    4.528115   -0.429027
H      0.752242    4.923104    1.043264
H     -3.058317    1.408850   -2.515190
H     -4.834286    1.269783   -2.307621
H     -3.964796    2.346863   -1.199780
H      2.045163    0.777863   -1.583990
H      1.753708   -2.679284    0.902628
H      4.320187    0.121574   -2.180851
H      3.984528   -3.346165    0.250063
H     -1.012135   -3.325781    2.604094
H     -2.794145   -3.063646    2.405003
H     -2.662014   -4.043718    0.139726
H     -1.467579   -0.933701    2.468888
