40

C     -2.677588   -1.121363   -1.386893
C     -4.408403   -2.042394    0.063003
C      4.299395   -0.124490   -0.292524
C      3.102909   -2.184133   -0.412231
C     -0.369921    4.053903   -1.132208
C     -2.317447   -0.890668    0.999395
C     -3.147208   -1.322634   -0.176269
C      4.329479   -1.508235   -0.257050
C      3.167827    0.480458   -0.450103
C      1.890641   -1.506773   -0.591697
C     -0.264439    2.607462   -0.931864
C      1.884697   -0.161399   -0.609161
C     -1.124584    1.821371   -0.235673
C     -0.485125    0.598295   -0.024751
C      5.601280   -2.238035   -0.039141
C     -2.234409    3.120628    1.961430
Cl     3.179085    2.265404   -0.482209
Cl     0.449923   -2.462289   -0.931399
F      6.681417   -1.401068   -0.358294
F      5.754599   -2.527669    1.303540
F      5.719737   -3.420441   -0.698834
F     -3.462599    3.457417    2.557494
F     -1.563606    4.261910    1.608722
F     -1.597985    2.248284    2.792780
N     -0.469781    5.178993   -1.293821
N     -1.002759   -0.493041    0.668724
N      0.846466    1.922936   -1.162625
N      0.736170    0.693245   -0.618333
O     -3.186683    3.383921   -0.515728
S     -2.746720    2.239623    0.362383
H     -3.358178   -1.586178   -2.178273
H     -1.856445   -0.647241   -1.779311
H     -4.539351   -2.338343    1.160872
H     -5.344551   -1.547378   -0.230925
H     -4.444866   -3.020630   -0.533003
H      5.282772    0.367190   -0.179414
H      3.049821   -3.269273   -0.416798
H     -2.888032   -0.087237    1.564655
H     -2.288920   -1.708559    1.742300
H     -0.196618   -1.091567    1.133235
