34

C      3.166931    0.602004    0.468188
C      3.149256   -0.893150   -1.340437
C      4.540771    0.603874    0.448319
C      4.523386   -0.891686   -1.360776
C     -2.687822    0.190138   -1.222487
C     -2.166431    1.354350   -0.430611
C      2.443810   -0.151576   -0.431875
C      5.247848   -0.137454   -0.459960
C     -2.684862   -1.018467   -0.347517
C     -2.294888   -0.506822    1.016703
C     -3.518456   -0.139423    1.795562
C      0.963907   -0.155049   -0.412126
C     -2.115176    1.564721    2.029768
C     -1.612134    0.786048    0.847790
N     -3.372343    1.010111    2.335288
O      6.635256   -0.139244   -0.484552
O     -4.011974   -1.546072   -0.280288
O     -4.627373   -0.972356    1.883262
O      0.396487   -0.862862   -1.259808
O     -1.581023    2.511026    2.652585
S      0.154202    0.804986    0.761198
H      2.642317    1.192808    1.191535
H      2.597379   -1.489155   -2.052522
H      5.127252    1.201785    1.162329
H      5.103451   -1.472768   -2.073034
H     -3.732353    0.401733   -1.565515
H     -2.042080    0.005058   -2.117322
H     -3.014618    2.020533   -0.152809
H     -1.384959    1.930126   -0.989530
H     -1.988976   -1.812897   -0.616185
H     -1.692226   -1.266028    1.580092
H      7.163832    0.514803   -1.035238
H     -3.908325   -2.468890    0.010094
H     -5.420065   -0.770209    2.494076
