59

C      5.168119   -3.153472    0.023714
C     -5.911003    0.905491    1.747205
C     -1.354162   -0.819899    3.536230
C      3.857070   -3.839006   -0.237777
C      2.446757    2.689792   -2.874930
C      1.814877    3.560476   -0.759999
C      2.235766    1.409680   -2.409241
C      1.604344    2.262963   -0.298201
C     -3.189326    1.173092   -2.006582
C      1.168811   -2.333283    1.222684
C     -4.485839    1.594479   -2.244502
C      0.201297   -1.863820    0.181231
C     -3.527507    0.206802    1.911403
C      2.714483   -0.649135    0.283797
C      2.446961    5.132779   -2.502910
C     -0.757700    0.174494   -0.633241
C     -4.565748    0.697060    1.153288
C      2.237347    3.784848   -2.050432
C      1.812969    1.176398   -1.119030
C      2.570030   -2.111612    0.653404
C     -3.093713    0.784680   -0.668051
C     -2.014738    0.282554    0.089035
C      1.604720   -0.208999   -0.645361
C     -2.267960    0.000158    1.396237
C     -4.338797    0.991295   -0.164607
N      2.613315    6.219559   -2.874361
N     -5.167556    1.473011   -1.101589
N      0.339916   -0.403426    0.043661
O     -1.251621   -0.487828    2.194268
O      2.841159   -2.937096   -0.399307
H      5.096687   -2.282098    0.674529
H      5.643047   -2.803762   -0.935800
H      5.904672   -3.860419    0.491725
H     -6.695300    0.563903    1.048940
H     -5.996270    1.989240    1.981587
H     -5.979389    0.372838    2.710517
H     -1.987791   -1.689715    3.762561
H     -1.771006    0.026720    4.152026
H     -0.352393   -1.027162    3.946268
H      3.962658   -4.421402   -1.173568
H      3.627622   -4.514913    0.627581
H      2.774482    2.831085   -3.881927
H      1.652538    4.409860   -0.120540
H      2.409450    0.577000   -3.082226
H      1.270529    2.082158    0.722108
H     -2.397589    1.150606   -2.729004
H      1.025009   -3.408128    1.463691
H      1.111710   -1.784066    2.177268
H     -4.839775    1.952007   -3.205112
H      0.603596   -2.306218   -0.803366
H     -0.819712   -2.209965    0.261725
H     -3.744374   -0.013349    2.946474
H      3.712672   -0.546217   -0.213033
H      2.772849   -0.035835    1.197351
H     -0.476311    1.204708   -0.953540
H     -0.948720   -0.454822   -1.545864
H      3.254618   -2.328076    1.492953
H      1.605252   -0.892612   -1.515748
H     -6.171028    1.706600   -0.943618
