49

C     -3.320086   -0.124889    2.150095
C      2.271235   -2.502103   -1.591427
C     -4.116501   -1.038696    1.527632
C      3.442861   -2.756950   -0.964451
C     -2.185075    0.326294    1.518902
C      1.411013   -1.525208   -1.102056
C     -3.782817   -1.502957    0.276669
C      3.764356   -2.033857    0.157375
C      0.805729    2.291229   -0.557043
C     -1.157494    2.093299   -1.944214
C     -0.611476    1.858044   -0.505613
C     -1.779111   -0.090915    0.249594
C      1.693451   -0.793917    0.003936
C     -2.610894   -1.005669   -0.337431
C      2.907070   -1.045289    0.663049
C      1.323001    1.548329    0.621231
C     -0.483896    0.310034   -0.349786
C      0.725246    0.144161    0.606425
C     -2.500273   -1.451618   -1.723771
C      3.414685   -0.361587    1.824597
N      0.866741    2.256546    1.802541
O     -1.068827    3.416355   -2.313972
O     -3.224905   -0.781418   -2.578473
O     -1.765109   -2.453463   -2.183990
O      4.674854   -0.170321    1.895055
O      2.704102    0.127515    2.896721
Cl     0.683724    0.000000    0.000000
H     -3.605599    0.224101    3.147258
H      2.039584   -3.096635   -2.468035
H     -5.042156   -1.446068    1.977110
H      4.139214   -3.534291   -1.344632
H     -1.577448    1.044939    2.063420
H      0.517874   -1.422456   -1.699145
H     -4.428722   -2.219382   -0.210028
H      4.714113   -2.233709    0.637201
H      0.817314    3.405422   -0.327843
H      1.329031    2.080631   -1.488020
H     -0.522442    1.504046   -2.659906
H     -2.212189    1.692678   -1.980761
H     -1.250864    2.295381    0.236163
H      2.419316    1.552751    0.572718
H     -0.372049   -0.043640   -1.337905
H      0.454530   -0.154726    1.598138
H      0.082260    2.881426    1.542642
H      0.630155    1.590909    2.538241
H     -0.537221    3.970844   -1.724568
H     -2.085012   -3.053340   -2.947874
H      3.092429    0.228167    3.834231
H     -0.683724    0.000000    0.000000
