66

C      3.466220    1.385041   -1.649574
C     -8.584044    3.764252   -0.081132
C     -1.257922   -5.023958   -0.974260
C     -0.967161   -5.156394    0.489230
C      5.106138   -0.992556    1.413292
C     -0.971493   -3.551973   -1.333506
C     -1.044037   -3.698525    0.992926
C      5.842125    0.060995    0.862660
C      3.859274   -1.230898    0.941133
C     -3.166478    0.202922   -1.192526
C     -3.029446    0.459759    1.124518
C     -1.998979   -0.536174   -1.221183
C     -1.848458   -0.283300    1.133056
C      6.188715    1.958590   -0.644868
C      7.040994    2.501305    0.470037
C     -5.184043    2.523646    0.860608
C     -5.948770    1.234756   -0.956457
C      4.095503    0.597165   -0.584012
C     -7.331188    2.957240   -0.087082
C      5.348213    0.871017   -0.142989
C     -3.710740    0.716244   -0.037637
C     -0.265610   -3.027437   -0.122430
C     -1.318376   -0.788351   -0.025265
C     -4.945742    1.491282   -0.043990
C     -6.352248    3.253114    0.850210
C      3.290027   -0.451657   -0.080072
C      6.248150    3.018723    1.592480
C     -0.081594   -1.566193   -0.000370
C      0.989041   -1.040504   -0.897228
Cl    -6.643223    4.556507    1.991367
N     -7.100411    1.961373   -0.957302
N      2.077297   -0.758321   -0.529525
O      4.993131    3.006459    1.625824
O      6.939212    3.557672    2.689929
O      0.678498   -0.873348   -2.285700
H      3.879368    2.355923   -1.869301
H      2.395466    1.572185   -1.336351
H      3.360286    0.725250   -2.541490
H     -8.390839    4.782328   -0.517770
H     -9.306307    3.265940   -0.757600
H     -8.929622    3.857968    0.966763
H     -2.341998   -5.173518   -1.138761
H     -0.642674   -5.690081   -1.614794
H     -1.630994   -5.819259    1.043958
H      0.110010   -5.427983    0.614111
H      5.523472   -1.601994    2.197980
H     -0.333555   -3.538844   -2.214896
H     -1.941922   -3.030393   -1.495114
H     -0.497786   -3.662808    1.950480
H     -2.096075   -3.419784    1.039190
H      6.824920    0.183278    1.289463
H      3.301843   -2.047277    1.377670
H     -3.661886    0.369498   -2.151331
H     -3.433297    0.854548    2.064041
H     -1.612826   -0.899161   -2.175840
H     -1.342202   -0.463026    2.072236
H      5.619931    2.828738   -1.035230
H      6.874863    1.636687   -1.463539
H      7.873426    1.824355    0.763109
H      7.575315    3.405877    0.033312
H     -4.398464    2.728045    1.586844
H     -5.797711    0.448170   -1.661267
H      0.764071   -3.545839   -0.072487
H      0.347880   -1.410546    1.050663
H      6.476059    3.803385    3.544127
H      1.018672   -0.010137   -2.738341
