52

C      5.146636    1.697778   -1.556235
C      5.093876   -0.974337   -0.680008
C      1.010938   -2.144336    1.915084
C     -1.012221    0.359949    1.955574
C     -4.034902   -0.565389   -1.217518
C      4.101208    1.334970   -0.833453
C     -1.424231    2.115737   -1.242675
C      2.993070   -0.484008    0.390427
C     -0.523153   -2.527918    0.089884
C      1.813085    0.351391    0.815867
C     -1.875691   -1.831597    0.121358
C     -0.752080    1.823695    0.046199
C     -2.727870    1.451641   -1.466552
C      3.986867   -0.020067   -0.335123
C      0.447709   -1.645440    0.845242
C      0.610552   -0.287638    0.277399
C     -1.705337   -0.427992   -0.327891
C     -3.638038    0.793896    0.697631
C     -0.723776    0.402892    0.471545
C     -2.999421    0.310778   -0.523008
O     -3.854624    2.008020    0.909361
O     -4.024193   -0.115381    1.664576
H      5.921184    0.982184   -1.777986
H      5.287729    2.689843   -1.954376
H      6.083195   -0.536062   -0.429219
H      5.029095   -1.187397   -1.763961
H      4.941154   -1.920668   -0.143183
H      0.791045   -3.175493    2.260251
H      1.709158   -1.630461    2.567229
H     -1.653809    1.187570    2.310131
H     -0.055338    0.490116    2.541951
H     -1.399318   -0.623254    2.284801
H     -4.525312   -1.262134   -0.533247
H     -3.623914   -1.046838   -2.128901
H     -4.826327    0.139614   -1.576560
H      3.368461    2.087538   -0.649345
H     -0.685424    1.941545   -2.072183
H     -1.603289    3.231587   -1.278907
H      3.028190   -1.516403    0.685258
H     -0.537345   -3.551809    0.453160
H     -0.179320   -2.504864   -0.963335
H      2.002028    1.387988    0.580499
H      1.873150    0.299917    1.952009
H     -2.500065   -2.348769   -0.635598
H     -2.384397   -1.952176    1.088959
H     -1.173819    2.522805    0.828838
H      0.302437    2.213811   -0.072697
H     -3.596175    2.153331   -1.488189
H     -2.707948    1.002437   -2.502664
H      0.704407   -0.422335   -0.842103
H     -1.243203   -0.484993   -1.362580
H     -4.254634    0.206724    2.604266
