35

C     -4.905186    1.153192    0.034072
C      5.596086    0.475543    0.429175
C      2.975572    2.063527    0.083148
C     -4.926293   -1.300374   -0.482685
C     -2.158166    0.925386    0.305046
C     -4.225810   -0.154353   -0.161210
C      4.287184   -0.093513   -0.039952
C      3.181612    0.592817   -0.181796
C     -2.864898   -0.211581   -0.015363
C     -0.780549    0.870677    0.453432
C     -4.205358   -2.454083   -0.640909
C     -0.878313   -1.494528   -0.053907
C     -2.234247   -1.422440   -0.196042
C     -0.169484   -0.342679    0.269782
C      4.051805   -1.475425   -0.415797
C      2.132869   -0.304961   -0.645191
F     -0.111274    2.017188    0.775231
F     -0.219595   -2.674357   -0.224863
O     -4.794639   -3.528586   -0.934491
O      4.925256   -2.420544   -0.394085
O     -2.906908   -2.498224   -0.499564
O      1.179518   -0.457971    0.401454
O      2.738244   -1.558142   -0.788475
H     -4.618498    1.630997    0.985574
H     -4.549066    1.813761   -0.805181
H     -6.005413    1.041206   -0.033368
H      5.812291    1.318038   -0.268974
H      6.390178   -0.285348    0.287427
H      5.505156    0.822849    1.473968
H      2.576981    2.225939    1.100538
H      3.942642    2.606768   -0.033103
H      2.273339    2.468413   -0.654547
H     -6.006169   -1.272887   -0.602166
H     -2.644979    1.892404    0.451322
H      1.636111    0.031291   -1.584977
