38

C     -0.169452   -2.793600   -0.746666
C     -1.804087   -2.472506    1.121031
C     -1.315695    3.265758    0.311600
C      3.416892   -0.739969   -0.805041
C      2.700595    0.628360    1.779581
C     -2.052436    1.264133   -0.857383
C     -1.761895   -0.202617   -0.911852
C      0.373722    1.596207   -0.212161
C     -0.575940   -1.964086    0.435513
C     -0.903698    2.157346   -0.669701
C     -0.738430   -0.512663    0.120139
C      0.546957    0.126500   -0.376101
Si     2.045336   -0.520734    0.462284
H      0.396071   -2.241129   -1.507330
H     -1.071565   -3.280448   -1.159735
H      0.491892   -3.633384   -0.392902
H     -2.727117   -1.937197    0.826059
H     -1.732257   -2.334840    2.237994
H     -1.997872   -3.554984    0.925370
H     -2.169711    2.881990    0.943656
H     -0.503608    3.488189    1.028256
H     -1.678725    4.156146   -0.198827
H      3.506208    0.255727   -1.324096
H      3.175940   -1.505489   -1.543469
H      4.375816   -0.901132   -0.273820
H      2.610585    1.662358    1.447334
H      2.263151    0.429605    2.773828
H      3.796508    0.417460    1.885904
H     -2.822569    1.405608   -0.041852
H     -2.623702    1.513444   -1.799175
H     -2.699634   -0.754872   -0.835937
H     -1.290151   -0.398958   -1.918454
H      1.249257    2.089836   -0.729383
H      0.552114    1.828719    0.878828
H      0.264695   -2.033648    1.179327
H     -0.719204    2.708859   -1.639323
H     -1.023127    0.006553    1.058814
H      0.615137   -0.100542   -1.472309
