44

C     -2.020728   -3.755609    0.340429
C      5.192238    0.978159   -0.637967
C      2.107853   -1.879301   -0.567349
C      3.145473   -0.946948   -0.593920
C     -1.748152    2.215183   -1.534277
C     -1.300028    1.008915   -1.311245
C     -1.704603   -0.226460    0.823208
C     -2.095382   -1.446252    0.017086
C     -1.246580    2.842605    0.796727
C     -0.066112   -2.698899   -0.396804
C      0.798283   -1.488229   -0.384340
C     -1.758134    3.287336   -0.529986
C      2.817603    0.380810   -0.430633
C     -0.219249    1.778309    0.745179
C      0.540388   -0.164985   -0.229693
C      1.511240    0.805700   -0.244639
C     -0.750509    0.579522   -0.023580
N     -1.246339   -2.531522    0.420189
O     -3.105906    3.675182   -0.358202
O      3.856317    1.327821   -0.455874
O      0.910863    2.071468   -0.055669
Br     0.766302    0.000000    0.000000
H     -1.971633   -4.161495   -0.690577
H     -3.088068   -3.544774    0.583489
H     -1.654418   -4.511953    1.046330
H      5.400595    0.625647   -1.677023
H      5.438062    0.155468    0.070557
H      5.814007    1.869203   -0.386722
H      2.350205   -2.929024   -0.694398
H      4.151209   -1.303255   -0.739977
H     -2.150036    2.468636   -2.534072
H     -1.344946    0.298047   -2.142856
H     -1.157899   -0.492814    1.753395
H     -2.562486    0.419291    1.058669
H     -3.142890   -1.688447    0.314215
H     -2.055805   -1.276528   -1.079383
H     -0.889545    3.706431    1.393769
H     -2.111988    2.427382    1.375294
H     -0.291553   -2.984609   -1.425338
H      0.523148   -3.517298    0.066110
H     -1.248900    4.202917   -0.903570
H      0.086857    1.510506    1.758684
H     -3.712456    2.913867   -0.562942
H     -0.766302    0.000000    0.000000
