67

C      8.435117    0.235880    1.776573
C     -6.601416    0.182011    2.621459
C     -7.285605   -0.144008    0.414726
C     -6.786423    2.015350    1.214339
C      7.151076    0.627224    2.478908
C      6.053877   -0.363359    2.258780
C      5.699281   -0.531013    0.795674
C      5.238654    0.741763    0.166959
C      4.909319    0.514446   -1.285786
C      3.823747   -0.499725   -1.433043
C      2.558251   -0.122336   -0.737840
C      2.010864    1.169749   -1.267465
C      1.715533    1.107842   -2.724582
C      0.795559    0.055342   -3.128950
C     -0.589928   -0.048848   -2.684092
C     -0.948290   -0.239216   -1.271162
C     -4.805765   -1.972450    0.755262
C     -4.996691    0.465547    0.954583
C     -4.559339   -0.650033    0.065643
C     -4.399531   -3.144120   -0.057219
C     -2.472373   -0.349448   -1.238138
N     -6.382571    0.596869    1.224037
O     -4.581720   -4.285151    0.491728
O     -3.861223   -3.101191   -1.310793
O     -3.152949   -0.274813   -2.287035
O     -3.124335   -0.534863   -0.036558
H      8.325180    0.177703    0.677671
H      9.189780    1.015075    2.072987
H      8.829860   -0.723257    2.161256
H     -6.627351    1.051397    3.311200
H     -7.540287   -0.404224    2.688930
H     -5.785658   -0.524212    2.871175
H     -7.888026   -0.844567    1.032420
H     -6.873587   -0.613830   -0.487716
H     -8.061611    0.576631    0.014172
H     -7.800825    2.127710    1.659165
H     -6.109797    2.633822    1.821960
H     -6.820656    2.414606    0.187509
H      7.383140    0.626373    3.567212
H      6.865835    1.666651    2.229913
H      6.448301   -1.361825    2.590285
H      5.195244   -0.112175    2.878847
H      4.919542   -1.318394    0.767118
H      6.577754   -0.902496    0.240976
H      6.032905    1.529418    0.183706
H      4.338685    1.172833    0.652974
H      4.665208    1.490123   -1.745326
H      5.834670    0.137276   -1.826626
H      3.673265   -0.658232   -2.540774
H      4.144353   -1.509114   -1.077524
H      1.835310   -0.970630   -0.934718
H      2.753881   -0.073354    0.363474
H      1.185841    1.549203   -0.643545
H      2.865789    1.920190   -1.086218
H      2.723057    0.948277   -3.232426
H      1.434547    2.131135   -3.126505
H      1.343813   -0.946345   -3.011992
H      0.745110    0.096429   -4.286143
H     -1.248684    0.779445   -3.138256
H     -1.031355   -0.958502   -3.234374
H     -0.609190   -1.219349   -0.876020
H     -0.722267    0.533944   -0.549934
H     -4.213167   -2.049344    1.702203
H     -5.860599   -2.094586    1.081981
H     -4.648316    1.439607    0.499138
H     -4.397521    0.401112    1.910018
H     -4.915289   -0.585973   -0.957959
