43

C     -5.005877   -0.949713   -0.883087
C     -5.845104   -1.074313    1.401332
C      5.762087   -0.544491    1.966182
C      4.090137    1.117927   -0.095267
C      2.889562   -0.870515   -0.602161
C      2.916565    1.807868   -0.095749
C      1.693728   -0.171553   -0.603525
C     -2.818022    0.573345    0.059393
C     -0.723458    1.619146   -0.506990
C     -4.935683   -0.293744    0.464677
C      6.072532   -1.122115    0.645250
C      4.082418   -0.231775   -0.349736
C     -1.348765    0.694326    0.506452
C      1.679220    1.179223   -0.350580
N     -3.573199   -0.242412    0.979836
N      5.289341   -0.951720   -0.351613
O      7.224951   -1.858160    0.479423
O     -1.312939    1.288563    1.788047
O      0.575467    1.972969   -0.326707
Cl     0.688131    0.000000    0.000000
H     -4.073562   -1.392160   -1.229619
H     -5.775958   -1.772673   -0.913160
H     -5.314677   -0.178487   -1.642618
H     -6.514661   -1.765701    0.825587
H     -5.278408   -1.708347    2.099173
H     -6.492536   -0.374647    1.969955
H      4.676247   -0.559333    2.208440
H      6.283434   -1.076144    2.794047
H      6.115252    0.515294    1.962840
H      5.056988    1.590912    0.101040
H      2.884747   -1.946306   -0.805379
H      2.939438    2.874881    0.107210
H      0.754058   -0.696654   -0.828468
H     -3.213430    1.612903    0.091766
H     -2.778128    0.165515   -0.964311
H     -0.845061    1.078136   -1.501033
H     -1.432396    2.489112   -0.581043
H     -5.306747    0.751191    0.416163
H     -0.915987   -0.282068    0.614227
H     -3.167594   -1.197217    1.084709
H      7.546527   -2.194779   -0.430804
H     -1.860506    2.123716    1.765275
H     -0.688131    0.000000    0.000000
