61

C     -5.541462    2.844525   -0.730611
C      6.622232   -1.457688   -2.020804
C      5.345450   -1.590005   -1.496711
C      7.111676   -0.183583   -2.179623
C      0.850550   -1.596881    1.871988
C      0.058230   -2.409880    2.545276
C     -3.584206    1.297611   -0.771119
C     -5.803576    0.385918   -0.857099
C      0.862354    2.576961    0.502787
C     -0.949768    0.859922    1.195142
C     -4.943565    1.463468   -0.787938
C      0.382544    1.315064    0.658045
C      4.588016   -0.489860   -1.145251
C     -3.045592    0.031300   -0.822354
C      0.357990   -1.043861    0.586550
C      6.368636    0.950279   -1.832966
C     -1.278681   -2.707131    1.953958
C     -5.297426   -0.896289   -0.914018
C      2.137842    2.785638   -0.018127
C      1.129152    0.209452    0.310888
C      5.095872    0.792791   -1.311401
C     -3.921623   -1.045325   -0.898037
C      2.903449    1.694680   -0.372630
C      2.386497    0.404178   -0.202986
C      3.252701   -0.700635   -0.599632
C      4.243893    1.904844   -0.920395
C     -1.874540   -1.357385    1.617059
C     -1.679803   -0.531790   -0.736988
C     -3.152587   -2.295339   -1.102799
C     -1.086284   -0.538966    0.664882
O      6.930811    2.157494   -2.024203
O     -2.104600   -3.307270    2.882230
O     -6.142083   -1.995822   -0.984704
O      2.597199    4.077243   -0.163895
O      2.804125   -1.887015   -0.454713
O      4.682696    3.073253   -1.061884
O     -1.938788   -0.667536    2.845844
O     -3.647863   -3.446267   -1.203399
O     -1.840965   -1.890815   -1.150510
H     -4.914222    3.530523   -0.125969
H     -5.555072    3.258233   -1.773715
H     -6.582378    2.766648   -0.378324
H      7.225289   -2.313957   -2.299953
H      4.942678   -2.589456   -1.364326
H      8.101058   -0.032641   -2.584076
H      1.858171   -1.327095    2.245937
H      0.381795   -2.829270    3.478217
H     -2.977299    2.167376   -0.747527
H     -6.889414    0.528031   -0.867881
H      0.303482    3.463672    0.764670
H     -1.686687    1.580040    0.929299
H     -0.894863    0.857271    2.323932
H      0.477507   -1.744180   -0.263778
H     -1.165829   -3.367636    1.092962
H     -2.953816   -1.459767    1.315691
H     -0.974473   -0.008237   -1.406070
H      6.709685    3.084977   -1.900737
H     -1.951780   -4.290262    2.824532
H     -7.131154   -1.949570   -0.999315
H      2.032608    4.855215    0.096617
H     -1.233791   -0.965191    3.462453
