34

C      4.677820   -0.840091   -1.881490
C     -2.620364    0.352595   -1.637270
C     -3.344491   -0.949852    0.284069
C      3.437916   -0.824728   -1.015230
C     -2.109511    0.913998    2.104902
C      3.034661    0.280953   -0.435036
C     -1.937888    1.105030    0.650128
C      1.863290    0.353350    0.400433
C      1.524273    1.538145    0.944439
C      1.033191   -0.793838    0.706366
C      0.333995    1.552812    1.775217
C     -2.241301   -0.070084   -0.225431
C     -0.809480    0.657165    1.503119
C     -0.432179   -0.679081    0.923039
Cl     4.023167    1.716203   -0.733360
Cl     2.468428    2.957169    0.665407
O      1.547696   -1.920898    0.796816
O      0.249906    2.341678    2.759870
O     -0.831833   -1.719340    1.748385
O     -1.060205   -0.803068   -0.290868
H      4.500382   -1.346439   -2.834166
H      5.088498    0.175389   -2.008754
H      5.416449   -1.461091   -1.314654
H     -3.738829    0.305910   -1.777426
H     -2.183509   -0.382238   -2.348736
H     -2.300231    1.389788   -1.858471
H     -4.213056   -0.331640    0.651322
H     -3.771551   -1.505360   -0.600920
H     -3.042371   -1.712065    1.000363
H      2.918760   -1.752042   -0.915503
H     -2.203678    1.833067    2.719850
H     -2.740428    0.087430    2.488268
H     -1.822072    2.113569    0.203981
H     -0.715456   -2.582396    1.277549
