61

C     -4.035903    3.812930    0.719854
C      5.569733    1.432759    2.919807
C      4.236809    1.219831    2.656954
C      6.509833    1.171867    1.955686
C     -0.734141   -0.258685    1.803201
C     -0.761839   -1.498566    2.326836
C     -3.466925    1.424973    0.505305
C     -4.928062    2.394484   -1.122181
C      1.221139   -0.909000   -2.589890
C     -1.213911   -0.819019   -1.708078
C     -4.151492    2.506353    0.007474
C      0.292123   -0.647994   -1.621493
C      3.894110    0.742049    1.406408
C     -3.554197    0.217133   -0.127697
C     -0.617842   -0.010496    0.380004
C      6.166996    0.684023    0.677005
C     -0.678480   -2.714913    1.495287
C     -5.004678    1.184095   -1.736525
C      2.553020   -0.709019   -2.342706
C      0.617923   -0.171290   -0.343674
C      4.830113    0.470938    0.414676
C     -4.331750    0.091536   -1.257234
C      2.922364   -0.241563   -1.102425
C      1.958824    0.022442   -0.118830
C      2.475564    0.519559    1.139815
C      4.354841   -0.029013   -0.866143
C     -0.849054   -2.472132    0.042587
C     -2.915757   -1.076602    0.110782
C     -4.340171   -1.324218   -1.699096
C     -1.466940   -1.140458   -0.255278
O      7.129481    0.442847   -0.237542
O      0.570516   -3.303801    1.797019
O     -5.778558    1.037341   -2.876203
O      3.536007   -0.961394   -3.297681
O      1.656118    0.775529    2.053988
O      5.184765   -0.282293   -1.783238
O      0.389982   -2.567899   -0.560941
O     -4.946712   -1.769245   -2.695658
O     -3.560281   -1.994636   -0.795076
H     -3.500080    3.689897    1.673141
H     -3.540529    4.549827    0.056193
H     -5.092585    4.119804    0.949879
H      5.883798    1.801082    3.871431
H      3.460942    1.413838    3.393079
H      7.564342    1.324036    2.118094
H     -0.843341    0.547176    2.507044
H     -0.848391   -1.632499    3.400431
H     -2.874168    1.561824    1.424640
H     -5.462118    3.279274   -1.495791
H      0.913859   -1.279489   -3.570807
H     -1.632604    0.142788   -2.015809
H     -1.478921   -1.657352   -2.358949
H     -1.114314    0.935271    0.053134
H     -1.422131   -3.496343    1.848566
H     -1.522157   -3.264595   -0.374540
H     -3.105604   -1.473963    1.111096
H      7.227228    0.131885   -1.131405
H      0.511735   -3.663870    2.727799
H     -6.304780    1.778414   -3.298525
H      3.308862   -1.305261   -4.221124
H      1.137386   -2.750197    0.057324
