28

C     -3.237095   -1.072629   -1.099170
C      1.482291    1.607969    1.439044
C      0.261446    0.992460    1.213278
C      2.590350    1.165421    0.771961
C     -1.127736   -0.770641    0.061888
C      1.275117   -0.484666   -0.331471
C     -2.015759   -0.147323   -0.974410
C      0.128722   -0.055288    0.333850
C      2.492051    0.099275   -0.131288
C      3.676819   -0.418671   -0.828497
F      4.819618   -0.010627   -0.111413
F      3.613955   -1.822768   -0.787975
F      3.749815    0.007670   -2.147237
N     -2.560213    1.105932   -0.430491
Cl     0.684003    0.000000    0.000000
H     -4.140742   -0.489694   -1.262397
H     -3.049938   -1.696176   -1.984534
H     -3.261676   -1.732944   -0.222034
H      1.597025    2.432509    2.126713
H     -0.629095    1.346713    1.752774
H      3.532235    1.625907    0.927140
H     -0.870093   -1.805217   -0.239900
H     -1.698545   -0.857316    1.029149
H      1.204693   -1.306208   -1.030663
H     -1.518850    0.029478   -1.929986
H     -3.384008    1.394218   -0.998538
H     -2.930388    0.862615    0.539032
H     -0.684003    0.000000    0.000000
