43

C      4.960605    0.959558    0.617323
C      5.498896   -1.230994   -0.428850
C     -6.122003    0.148887   -0.474512
C     -3.339540   -1.177053    0.322478
C     -3.536512    0.505032    2.024498
C     -2.035187   -0.785773    0.104384
C     -2.223635    0.867711    1.774501
C      2.836817   -0.074344   -1.394542
C      0.639377    0.003664   -0.354105
C      5.152073    0.229147   -0.687417
C     -6.388173   -0.557330    0.778835
C     -4.094982   -0.538536    1.278190
C      2.035132    0.630093   -0.356985
C     -1.440892    0.234586    0.812371
N      4.139557    0.391954   -1.658043
N     -5.437362   -0.869813    1.583010
O     -7.669707   -0.932647    1.178565
O      1.837875    1.972004   -0.658547
O     -0.133267    0.662537    0.630534
Cl     0.688069    0.000000    0.000000
H      5.959765    1.362773    0.985065
H      4.652248    0.289045    1.454917
H      4.335976    1.865605    0.531823
H      5.322381   -1.882897   -1.283611
H      6.584653   -1.323010   -0.157612
H      4.943794   -1.525093    0.478497
H     -6.404395    1.234876   -0.402592
H     -6.707312   -0.368770   -1.274589
H     -5.079878    0.139723   -0.793628
H     -3.796493   -1.976082   -0.234781
H     -4.133005    1.012270    2.780419
H     -1.428126   -1.291513   -0.656197
H     -1.767960    1.674035    2.335567
H      2.254289    0.019837   -2.364408
H      2.776855   -1.167271   -1.166595
H      0.691997   -1.093092   -0.196736
H      0.143926    0.161298   -1.343909
H      6.103730    0.652122   -1.139158
H      2.448299    0.436905    0.638207
H      4.476118    0.302857   -2.628051
H     -7.863198   -1.523575    1.979317
H      1.807263    2.561274    0.111915
H     -0.688069    0.000000    0.000000
