63

C     -2.104420    2.303288   -2.552896
C      0.030605   -3.488362    0.947705
C     -3.237851    2.441894    0.067032
C     -1.139619    3.339425    0.768698
C     -1.432989    2.683320   -1.496689
C      6.998357   -1.907016   -0.672915
C      5.901890   -2.743532   -0.536802
C      6.817944   -0.663728   -1.226254
C     -5.037827   -0.691494    1.979938
C      4.659254   -2.292174   -0.965952
C      5.571778   -0.214430   -1.655242
C     -3.742263   -0.418702    2.321688
C     -5.428888   -0.758271    0.639023
C      3.124973   -0.616718   -1.961974
C     -0.518095    0.575384    2.219003
C     -0.596507   -2.288601    1.574650
C      4.477725   -1.042493   -1.522168
C     -2.794508   -0.203402    1.320238
C      0.694762    0.841250    1.288268
C     -4.513966   -0.548978   -0.372176
C      2.453491    0.058786   -0.793928
C     -3.187590   -0.268861   -0.011097
C      1.083168    0.524446   -1.136530
C      1.715389   -0.243771    1.441914
C     -1.748643    2.237342   -0.073463
C     -1.408800    0.039261    1.257088
C     -1.244904    0.903910    0.036918
N     -2.026043    0.011190   -0.835097
N      0.179494    0.741477   -0.072208
O     -0.919294   -2.244037    2.777348
O     -4.881792   -0.611186   -1.707394
O      0.715588    0.725615   -2.322373
O      1.968934   -0.610907    2.628155
O      2.326027   -0.790335    0.330211
O     -0.814155   -1.214929    0.782145
H     -2.937844    1.635975   -2.462105
H     -1.827883    2.656786   -3.529344
H     -0.614948   -3.945590    0.182427
H      0.330274   -4.235818    1.713055
H      0.960033   -3.171745    0.432174
H     -3.837511    2.154873   -0.792222
H     -3.638616    2.119586    1.049620
H     -3.382779    3.577650    0.113712
H     -1.504938    3.394028    1.793529
H     -1.595593    4.280584    0.297765
H     -0.068277    3.500839    0.603878
H     -0.583444    3.369697   -1.673337
H      7.973797   -2.244481   -0.343030
H      6.039180   -3.715592   -0.104907
H      7.691439   -0.031614   -1.320364
H     -5.754603   -0.854892    2.782532
H      3.792450   -2.931237   -0.867678
H      5.474996    0.772521   -2.085486
H     -3.428521   -0.364595    3.351677
H     -6.461960   -0.977433    0.438873
H      3.219328    0.131554   -2.763809
H      2.548510   -1.472538   -2.354463
H     -0.146019   -0.185339    2.928094
H     -0.765393    1.439200    2.837559
H      1.201997    1.767350    1.523176
H      3.052667    0.925926   -0.510109
H     -1.839607   -0.346717   -1.777104
H     -5.837963   -0.813639   -1.928980
