63

C      0.122582   -3.587286   -0.565540
C     -1.022042    3.973638    1.601285
C     -3.062017   -2.281031   -0.602482
C     -1.275531   -1.947593   -2.118102
C     -0.817784   -2.872278    0.045373
C      7.499005    0.327364    0.077171
C      6.972190   -0.558446   -0.824679
C      6.693938    1.379926    0.500384
C     -5.527461    0.384944    1.252340
C      5.686974   -0.407822   -1.294244
C      5.390360    1.530081    0.022147
C     -4.251296    0.266559    1.723930
C     -5.790007    0.529255   -0.077410
C      3.499122    0.822632   -1.364339
C     -0.956254   -0.331886    1.968153
C     -1.461768    2.539787    1.784054
C      4.870453    0.629509   -0.887622
C     -3.173998    0.288314    0.871250
C      0.370285   -0.514038    1.190484
C     -4.729044    0.555456   -0.974442
C      2.519971    0.108321   -0.490278
C     -3.419677    0.432787   -0.486956
C      1.124209    0.315995   -0.991298
C      1.407085    0.431172    1.637396
C     -1.609643   -1.818350   -0.591230
C     -1.762555    0.242735    0.963956
C     -1.350665   -0.429788   -0.314187
N     -2.144856    0.406528   -1.185246
N      0.043898   -0.160367   -0.205866
O     -1.930591    2.224950    2.886856
O     -4.958032    0.702715   -2.351125
O      0.845908    0.884925   -2.062058
O      1.232017    1.030591    2.729186
O      2.518766    0.615038    0.842044
O     -1.345189    1.628280    0.769501
H      0.354417   -3.406225   -1.626688
H      0.699044   -4.354797   -0.101170
H     -0.546382    4.371609    2.502218
H     -1.964276    4.543111    1.434015
H     -0.391293    4.049249    0.695835
H     -2.989206   -3.413002   -0.705057
H     -3.591683   -2.140559    0.331611
H     -3.600228   -1.998335   -1.528228
H     -0.265953   -1.602598   -2.324844
H     -2.011987   -1.272477   -2.603416
H     -1.497200   -2.968617   -2.446233
H     -0.986539   -3.118384    1.081523
H      8.505425    0.237549    0.465942
H      7.620096   -1.381530   -1.147305
H      7.108396    2.072178    1.206431
H     -6.398983    0.369273    1.922208
H      5.312487   -1.132977   -2.006810
H      4.839093    2.377945    0.407114
H     -4.064872    0.152809    2.784193
H     -6.787118    0.626613   -0.489589
H      3.413382    0.409978   -2.381530
H      3.303725    1.907790   -1.418062
H     -0.687185    0.379123    2.772647
H     -1.264203   -1.248764    2.486888
H      0.774051   -1.512158    1.305015
H      2.744507   -0.967758   -0.475021
H     -1.941793    0.891378   -2.076733
H     -5.894077    0.786959   -2.664210
