42

C     -1.692201    1.747592   -1.586434
C     -6.320292    0.145124    0.269068
C      5.455800   -1.536129    1.708784
C      5.278488   -1.817473    0.373096
C      4.936246   -0.381831    2.236990
C      4.574995   -0.934873   -0.439047
C      4.238271    0.494281    1.432450
C     -1.786387   -1.623387    0.084891
C     -1.018092   -1.190468   -1.122060
C     -2.074480    0.820631    0.672624
C      3.303735    1.175683   -0.733066
C     -1.042993    1.119614   -0.346829
C      4.051925    0.224413    0.086915
C     -2.569129   -0.556901    0.758464
C     -3.987215   -0.645416    0.275074
C      1.113890    0.023793   -0.914496
N     -0.285082   -0.001122   -0.792442
O     -4.344246   -1.525076   -0.569482
O      1.729864   -1.020823   -1.321425
O     -4.977744    0.214336    0.714413
O      1.912312    1.103565   -0.627636
H     -2.642620    1.255617   -1.841802
H     -1.031120    1.660722   -2.473389
H     -1.916876    2.810265   -1.373042
H     -6.897275    0.871335    0.890490
H     -6.393195    0.428233   -0.787682
H     -6.763027   -0.853116    0.477277
H      6.009520   -2.237224    2.333658
H      5.684671   -2.729096   -0.060519
H      5.080697   -0.168508    3.289279
H      4.455718   -1.182988   -1.481166
H      3.834380    1.396118    1.853184
H     -1.060680   -2.132055    0.772264
H     -2.472865   -2.451986   -0.253897
H     -1.737992   -0.943370   -1.932275
H     -0.340665   -2.022718   -1.406333
H     -1.675972    1.189649    1.664871
H     -2.944164    1.515512    0.471413
H      3.666800    1.127110   -1.781809
H      3.592492    2.210405   -0.384952
H     -0.317343    1.903797    0.013385
H     -2.628148   -0.845614    1.851193
