137

C     11.277296   -0.388749   -0.094177
C     10.130853   -1.987693   -1.709833
C     -2.006956    1.326646    1.070804
C     -1.344998   -0.987533    1.023673
C      0.705746    3.111642    0.203347
C      3.003993    2.791367    2.286486
C      7.905710    1.464722   -0.746226
C      4.945758    1.709756   -0.513636
C      3.498632    2.248370   -0.620552
C      0.577893    0.900032    2.229856
C     -0.587169    1.306642   -1.850704
C      0.870387    1.419858   -1.493017
C      2.057414    0.575834    2.495471
C      8.895893   -0.714133    0.009882
C     -6.732299    1.705254   -3.915805
C     -4.244664   -3.231067    3.411351
C      8.407915   -0.503535    2.350535
C     -3.972473   -1.677394   -3.810709
C      5.065737    0.755439    2.970329
C      4.513265   -0.554246    1.213969
C     10.024441   -1.027595   -0.580407
C      8.789643    0.249285    1.145531
C      5.317528    1.801264    0.903425
C     -5.143923   -2.360185   -3.125472
C     -8.087731    1.379501   -3.328120
C     -3.600806   -4.217723    2.471955
C      0.391857    0.660468    0.768452
C      2.570423    1.445044    0.204080
C     -1.294685    0.256992   -1.035272
C     -8.432657    2.466677   -2.334999
C     -4.713352   -5.076802    1.903366
C     -8.642863    1.785665   -0.992055
C     -5.267932   -4.179576    0.837361
C     -7.369186    1.013277   -0.720345
C     -5.513331   -1.601859   -1.841171
C     -4.200314   -1.556413   -1.045910
C      6.609300    1.503100    1.449428
C     -4.173029   -3.129422    0.665950
C     -7.258346   -0.103085   -1.710875
C     -3.106221   -0.928002   -1.853869
C     -1.030180    0.377711    0.436042
C      1.107959    1.700908   -0.023376
C      2.983639    1.407186    1.670811
C      7.876294    1.422222    0.762585
C      4.347141    0.865206    1.652910
C      6.336227    0.210999    2.269069
O     -6.775200    3.001218   -4.482429
O     -4.729794   -3.915441    4.539816
O     -6.226760   -2.532370   -3.956163
O     -9.607271    3.082375   -2.694002
O     -4.210598   -6.263962    1.404040
O     -8.879334    2.777642   -0.050057
O     -6.429474   -3.526122    1.177162
O     -7.442688    0.549698    0.596495
O      8.658912    2.577602    1.073731
O     -3.711783   -0.516457   -3.080495
O      7.366312    0.007239    3.093466
O      5.888253   -0.792594    1.474219
O     -8.063759    0.125732   -2.790890
O     -3.090110   -3.644756    1.322886
O     -2.640740    0.204664   -1.244961
O     -5.950148   -0.332201   -2.147541
O     -3.953283   -2.890521   -0.702198
H     11.236827    0.730496   -0.236553
H     11.466908   -0.632315    0.973734
H     12.163579   -0.722418   -0.677593
H     10.234083   -1.407507   -2.668694
H      9.294539   -2.707625   -1.749279
H     11.116984   -2.522987   -1.605572
H     -2.270220    2.188930    0.435611
H     -2.970531    0.810653    1.319459
H     -1.644638    1.761013    2.031755
H     -0.669752   -1.289659    1.836846
H     -1.391729   -1.769450    0.226517
H     -2.367753   -0.967293    1.470277
H     -0.255731    3.361859   -0.277858
H      1.472614    3.746746   -0.331463
H      0.670602    3.479524    1.218359
H      3.040952    3.603802    1.533267
H      3.898483    2.964896    2.942372
H      2.147850    2.931227    3.015057
H      7.846498    2.522970   -1.140350
H      7.280976    0.750321   -1.254958
H      8.970361    1.195707   -1.040647
H      4.909206    0.736352   -0.986501
H      5.475713    2.414984   -1.204661
H      3.552716    3.311743   -0.409842
H      3.251331    2.129283   -1.691742
H      0.352760    1.948936    2.496125
H      0.004983    0.255130    2.886170
H     -0.615599    0.988704   -2.916872
H     -1.051900    2.303874   -1.816935
H      1.483142    0.581382   -1.874121
H      1.237539    2.332736   -2.050863
H      2.130223   -0.516511    2.313558
H      2.236330    0.822169    3.573116
H      7.982320   -1.176292   -0.339663
H     -5.961866    1.745328   -3.123149
H     -6.420410    0.977574   -4.700629
H     -3.564757   -2.427365    3.747178
H     -5.137641   -2.739221    2.963205
H      9.262576   -0.649488    3.077827
H      8.104404   -1.566278    2.104909
H     -4.229474   -1.429741   -4.861886
H     -3.083167   -2.343529   -3.853981
H      4.650479   -0.005242    3.645905
H      5.378633    1.676176    3.436102
H      3.997621   -1.207412    1.950266
H      4.326044   -0.809074    0.190898
H      9.853952    0.602399    1.310837
H      4.955030    2.834164    1.215043
H     -4.790892   -3.362524   -2.789382
H     -8.822429    1.468960   -4.167824
H     -2.850778   -4.795675    3.038411
H      0.942284   -0.307736    0.545393
H      2.703482    0.367939   -0.129672
H     -0.873979   -0.722235   -1.417147
H     -7.651725    3.251237   -2.259190
H     -5.473108   -5.299867    2.680117
H     -9.521239    1.138313   -1.095864
H     -5.448000   -4.713484   -0.120070
H     -6.523332    1.730465   -0.803457
H     -6.205553   -2.239691   -1.303698
H     -4.469231   -1.026791   -0.114495
H      6.757554    2.201725    2.347430
H     -4.475076   -2.182162    1.128091
H     -7.634094   -1.041541   -1.203342
H     -2.340129   -1.697160   -2.070996
H     -6.414571    3.637443   -3.822142
H     -5.622978   -3.628206    4.796956
H     -6.303038   -1.736315   -4.561238
H    -10.421586    2.691038   -2.252309
H     -3.306035   -6.496016    1.722016
H     -9.209861    2.356481    0.801953
H     -7.222810   -3.891420    0.734717
H     -7.501933    1.318248    1.202846
H      8.637599    2.611497    2.064698
