33

C     -4.546539    1.121995   -0.097251
C     -3.287270    1.675279   -0.163640
C      4.693209   -1.713785   -1.097864
C      5.679173   -1.588171   -0.140702
C      2.270555   -0.918670   -1.088337
C     -3.535754   -1.010735   -0.257166
C      2.923951    0.020930    1.378016
C     -0.255388    1.723565    0.968885
C      3.543329   -1.101215   -0.590214
C     -4.676349   -0.248226   -0.144757
C     -2.147562    0.906234   -0.276279
C      1.299229   -0.249845   -0.335656
C     -0.701917    1.245725   -0.365922
C      3.908731   -0.637641    0.656686
C      1.658146    0.217988    0.915771
C     -2.253893   -0.447586   -0.324723
C     -0.059235   -0.036497   -0.826694
O     -5.944493   -0.819740   -0.078521
O      5.161745   -0.945552    0.872830
O      0.656304    0.877411    1.626888
O     -0.991231   -0.999570   -0.436902
H     -5.445917    1.731593   -0.008250
H     -3.169563    2.749870   -0.127501
H      4.784435   -2.189805   -2.052565
H      6.704142   -1.972761   -0.247831
H      1.998538   -1.288102   -2.068618
H     -3.627618   -2.095971   -0.295576
H      3.197831    0.392346    2.364151
H      0.286261    2.703791    0.822953
H     -1.115553    1.922110    1.645924
H     -0.609775    2.040127   -1.136682
H     -0.032476    0.006183   -1.948822
H     -6.365048   -1.071275    0.792377
