45

C     -2.250582   -2.200118   -1.206538
C     -1.207055    4.764786   -0.521666
C     -3.198159    1.292522    0.615430
C     -2.546465    2.424253    0.244040
C     -3.382462   -1.080139    1.075524
C     -2.626823   -2.368377    1.151153
C      0.451886   -1.703771   -0.640537
C      2.821962   -1.680072   -0.394846
C      3.061766    1.030375   -0.251255
C      6.230350   -0.614420    0.403688
C     -2.532504    0.065597    0.645069
C      1.674142   -0.920510   -0.479569
C     -0.621509   -1.421963    0.381030
C     -1.231754    2.344615   -0.099617
C      1.823148    0.447470   -0.404199
C      4.072044   -1.098657   -0.240776
C      4.209508    0.278682   -0.166210
C     -1.192887   -0.057362    0.301942
C     -0.571454    1.135367   -0.071556
N     -1.679897   -2.402284    0.088221
O     -0.583419    3.519871   -0.477517
O      5.365332   -1.600354   -0.129786
O      5.571684    0.591249   -0.012412
O      0.759691    1.368851   -0.472993
Cl     0.683478    0.000000    0.000000
H     -2.347818   -1.138512   -1.500713
H     -1.683414   -2.704262   -2.017954
H     -3.265470   -2.651883   -1.214663
H     -1.590932    4.988988    0.500060
H     -0.441206    5.530175   -0.739481
H     -2.025280    4.830598   -1.263670
H     -4.248741    1.387341    0.884734
H     -3.053918    3.391620    0.215908
H     -3.745236   -0.831100    2.107253
H     -4.279786   -1.140718    0.435899
H     -3.360729   -3.198508    1.021498
H     -2.112236   -2.531822    2.110036
H     -0.015390   -1.591537   -1.639274
H      0.709934   -2.774447   -0.538371
H      2.773619   -2.775392   -0.447873
H      3.140346    2.097527   -0.196356
H      6.178623   -0.723100    1.509734
H      7.253003   -0.671625    0.026643
H     -0.301909   -1.608952    1.409973
H     -0.683478    0.000000    0.000000
