47

C     -4.060877    1.766891   -1.472487
C      6.104630    1.112681   -0.748215
C      5.148711    1.815281   -0.026959
C      5.885429   -0.226679   -0.986458
C      4.003772    1.216650    0.449505
C      4.736843   -0.807068   -0.503058
C     -1.857262   -1.152154   -0.875658
C     -4.275321   -1.083337   -0.616466
C     -1.947564    0.302413    1.125742
C      2.601214   -0.754741    2.206985
C      3.784030   -0.126795    0.210466
C     -3.098735   -0.439037   -1.342879
C     -1.056193   -0.213510    0.015373
C      2.591969   -0.847357    0.680377
C     -3.285239    0.735803    0.563258
C     -4.235555   -0.441113    0.733460
C      1.334236   -0.275465    0.189296
N     -3.119471    0.904442   -0.859495
O      3.743103   -1.329357    2.718652
O     -5.462778   -0.073673    1.225469
O      1.367155    0.732829   -0.555994
O      0.097909   -0.803662    0.514429
Br     0.760156    0.000000    0.000000
H     -3.491619    2.629530   -1.925611
H     -4.847473    2.167088   -0.834296
H     -4.551840    1.276957   -2.357103
H      7.012819    1.604322   -1.121644
H      5.346848    2.870036    0.146457
H      6.634568   -0.765070   -1.548409
H      3.263106    1.770303    1.010828
H      4.592774   -1.873635   -0.709762
H     -1.245364   -1.412492   -1.765065
H     -2.053408   -2.059949   -0.299103
H     -4.100055   -2.196180   -0.561097
H     -5.230064   -0.910463   -1.113006
H     -2.077349   -0.495951    1.898147
H     -1.471904    1.177548    1.613321
H      2.476938    0.311697    2.470684
H      1.714338   -1.312892    2.564930
H     -3.274276   -0.538540   -2.428692
H     -0.829323    0.680542   -0.634918
H      2.634808   -1.898989    0.373957
H     -3.662959    1.629837    1.072291
H     -3.814335   -1.204023    1.444199
H      3.638414   -2.311056    2.735847
H     -5.664645    0.848334    0.996844
H     -0.760156    0.000000    0.000000
