137

C     12.311231    1.491724    1.782995
C     11.960584   -0.511720    0.255427
C     -1.294499   -2.026173   -1.896071
C     -1.079497   -1.790794    0.518201
C      1.522896   -0.804388   -3.191484
C      4.104597   -2.503622   -2.106481
C      7.677752    1.501051    0.739815
C      5.264060    0.690092   -1.178550
C      3.978664    0.450142   -2.000715
C      1.302315   -2.718999   -0.816845
C     -0.369754    1.059858   -1.835600
C      1.107349    1.001331   -1.642109
C      2.679921   -2.660698   -0.175377
C     10.112005    0.526308    1.497436
C     -8.991802    5.766079    1.190451
C     -5.744681   -3.993188   -1.257345
C      8.589207   -1.216073    2.102310
C     -3.478351    3.288262    0.207478
C      5.649859   -2.549242    0.442095
C      4.559041   -0.741833    1.266604
C     11.383151    0.488054    1.183002
C      9.164017   -0.433968    0.936717
C      5.831303   -0.622138   -0.864503
C     -4.184261    2.651988    1.382050
C     -8.651475    4.319070    1.469156
C     -4.957490   -3.896855    0.017424
C      0.834028   -1.257316   -0.815931
C      3.034962   -0.399361   -1.237310
C     -1.152675    0.222577   -0.825468
C     -9.821163    3.430975    1.116098
C     -5.980051   -3.727147    1.143544
C     -9.693787    2.815319   -0.245805
C     -5.990232   -2.217148    1.302906
C     -8.381338    2.055413   -0.344109
C     -5.262751    1.667618    0.873738
C     -4.550082    0.592911    0.076729
C      7.059238   -0.811616   -0.137914
C     -5.039503   -1.679699    0.250725
C     -7.361741    2.609352    0.616442
C     -3.218168    1.124286   -0.341206
C     -0.643292   -1.170674   -0.827782
C      1.630930   -0.440718   -1.758230
C      3.633599   -1.745332   -0.871888
C      8.050153    0.230801    0.110513
C      4.794452   -1.410111   -0.045072
C      6.641583   -1.579835    1.132705
O    -10.129459    6.163871    1.902591
O     -6.485788   -5.192980   -1.181211
O     -4.825094    3.694055    2.079256
O    -10.029217    2.457696    2.108943
O     -5.583650   -4.388481    2.280669
O     -9.781910    3.828644   -1.197481
O     -7.276010   -1.736678    1.166401
O     -8.675848    0.738108   -0.001207
O      8.651708    0.542473   -1.141750
O     -3.476757    2.414568   -0.900926
O      7.691443   -2.192962    1.688975
O      5.809702   -0.850205    1.924126
O     -7.514739    3.999088    0.732458
O     -4.173082   -2.765045    0.089316
O     -2.488485    0.373889   -1.228342
O     -6.094670    2.417868    0.077854
O     -4.411561   -0.576041    0.766694
H     12.687720    1.060035    2.718394
H     13.151016    1.653589    1.103296
H     11.758244    2.447901    1.994227
H     11.354798   -0.636262   -0.664218
H     12.072537   -1.480175    0.792906
H     12.974185   -0.188292   -0.098270
H     -1.928231   -2.839073   -1.484153
H     -0.558637   -2.511221   -2.564609
H     -1.991745   -1.358244   -2.458717
H     -0.176475   -1.960657    1.182386
H     -1.470026   -2.809524    0.344724
H     -1.824205   -1.176324    1.024651
H      0.533332   -0.574381   -3.589655
H      2.248867   -0.174052   -3.755742
H      1.747519   -1.854847   -3.433393
H      5.043405   -3.066592   -1.927389
H      4.274752   -1.877627   -2.978586
H      3.363135   -3.312900   -2.388663
H      7.235439    1.471910    1.730676
H      7.094373    2.147198    0.014597
H      8.627604    2.116926    0.840443
H      5.941088    1.263969   -1.848533
H      4.940433    1.327695   -0.362377
H      3.532061    1.466837   -2.101476
H      4.258128    0.138383   -2.999022
H      1.320927   -3.142217   -1.822269
H      0.639135   -3.259477   -0.119638
H     -0.678663    2.121199   -1.630921
H     -0.727072    0.846697   -2.847910
H      1.327467    1.387303   -0.623227
H      1.542470    1.647669   -2.440373
H      3.095209   -3.686484   -0.214754
H      2.489825   -2.420419    0.888297
H      9.762963    1.274051    2.197657
H     -9.247269    5.939118    0.115237
H     -8.161785    6.436296    1.426154
H     -6.503552   -3.183713   -1.285772
H     -5.115101   -4.024755   -2.165166
H      9.434477   -1.612112    2.666980
H      7.977674   -0.473399    2.685549
H     -3.957218    4.240290   -0.090187
H     -2.423781    3.498640    0.501044
H      5.161114   -3.187325    1.183871
H      6.247628   -3.061129   -0.299665
H      4.286733    0.301137    1.261864
H      3.872186   -1.330362    1.887092
H      9.624430   -1.165133    0.263879
H      5.831639   -1.186211   -1.853059
H     -3.508525    2.163006    2.106584
H     -8.483936    4.238896    2.557279
H     -4.360141   -4.798555    0.197402
H      1.138099   -0.887029    0.218165
H      2.922695    0.111522   -0.227885
H     -0.986822    0.701986    0.151849
H    -10.730007    4.066104    1.124915
H     -6.984425   -4.071110    0.827899
H    -10.567071    2.158693   -0.400846
H     -5.616558   -2.000215    2.330160
H     -8.042683    2.157699   -1.390706
H     -5.747418    1.309595    1.787287
H     -5.182107    0.382748   -0.838091
H      7.652875   -1.635261   -0.673413
H     -5.597963   -1.456893   -0.665580
H     -7.495923    2.108083    1.589482
H     -2.565691    1.317342    0.531966
H    -10.214069    7.129989    1.943304
H     -7.185113   -5.206945   -1.902221
H     -4.992000    3.350817    3.005477
H     -9.876541    2.860096    3.000380
H     -5.345017   -5.305388    2.062790
H     -9.184182    3.668590   -1.975281
H     -7.732608   -1.612399    2.012550
H     -9.082268    0.300725   -0.791777
H      8.841753   -0.288460   -1.648123
