54

C      1.657128    1.192349    1.979629
C      3.947663    0.757591    1.184161
C     -3.992309   -2.319111    1.009298
C     -0.683459    3.945099    0.531529
C      1.271098   -1.925003   -1.915935
C     -2.705191    0.872102   -0.520765
C     -2.708731   -0.169826    0.506470
C     -2.150704    2.124797    0.121698
C     -2.183816   -2.278101   -0.572726
C     -1.109191   -1.769778   -1.383936
C      0.639712   -2.176863    0.398301
C      1.997533   -1.516572    0.660891
C      0.403228    0.921835   -1.617978
C      2.491163    0.928866    0.775997
C     -2.891559   -1.561302    0.247550
C     -1.029498    2.697952   -0.265769
C     -0.203248    2.224388   -1.315710
C      0.566572   -0.050469   -0.516745
C      0.222844   -1.479114   -0.859220
C      2.029644   -0.230244   -0.083628
O      0.102823    3.106048   -2.218426
O      2.895581   -0.220786   -1.182687
H      2.256532    1.925895    2.602852
H      1.520942    0.330311    2.663313
H      0.732825    1.722630    1.750388
H      4.567892    1.088928    0.326363
H      4.205026    1.416973    2.038469
H      4.177035   -0.301591    1.425441
H     -4.829874   -1.652914    1.224072
H     -3.478848   -2.689202    1.920500
H     -4.338599   -3.171950    0.424265
H     -1.492028    4.696378    0.417809
H     -0.631917    3.679210    1.600834
H      0.247531    4.409993    0.247102
H      1.416146   -1.172350   -2.686289
H      0.752964   -2.778003   -2.456879
H      2.144526   -2.387592   -1.471165
H     -2.338832    0.727030   -1.508779
H     -3.791544    1.203444   -0.713261
H     -3.603441    0.141290    1.201173
H     -1.900263    0.042897    1.296645
H     -2.750045    2.533495    0.951228
H     -2.444529   -3.384434   -0.638023
H     -0.911553   -2.685762   -2.120447
H     -1.354731   -1.046477   -2.189528
H      0.850218   -3.251412    0.240614
H     -0.063993   -2.032740    1.216220
H      2.847342   -2.140350    0.386583
H      2.029197   -1.403768    1.766045
H      1.454406    1.062498   -2.053914
H     -0.154561    0.484187   -2.454123
H      2.470309    1.882008    0.172436
H      0.110773    0.354674    0.378679
H      3.733815   -0.677156   -0.920620
