54

C     -4.793732   -2.640286    0.681515
C     -5.953340    1.897322    1.289256
C      3.496518    1.169337   -1.283623
C      6.391929    0.922327    2.353698
C      5.413113    0.734395    1.411051
C      2.447680    1.888282   -1.818507
C     -2.325240    0.736944   -2.616079
C     -3.090320    1.258204   -1.420629
C      2.090839   -0.684988   -0.959427
C      7.269777   -1.289353    1.899775
C      4.900171   -2.147357   -0.593969
C     -3.486925   -0.837235   -0.290331
C     -3.582569    1.209018    0.836980
C     -4.128468   -1.303176    0.981798
C     -5.052250    0.827634    0.735828
C      3.347913   -0.128713   -0.842355
C      7.310302   -0.095235    2.586787
C      5.342730   -0.443805    0.707489
C      4.473449   -0.878243   -0.270309
C      1.194939    1.328005   -1.933086
C      6.274271   -1.452651    0.955989
C      1.016077    0.032503   -1.500073
C     -0.888950    0.755063   -2.255006
F      8.265806    0.082514    3.508453
N      5.975151   -2.479818    0.143530
N     -5.169438   -0.429875    1.468396
N      0.000077    1.752643   -2.396256
N     -2.904451    0.472734   -0.227058
O     -0.245290   -0.243677   -1.720760
H     -5.479647   -2.546836   -0.199344
H     -5.456289   -2.937752    1.538629
H     -4.076082   -3.432981    0.446717
H     -5.789713    2.072507    2.371747
H     -5.682274    2.847535    0.784255
H     -6.985965    1.673188    1.022383
H      4.479838    1.618663   -1.198112
H      6.427401    1.855471    2.895139
H      4.667708    1.485374    1.183122
H      2.550800    2.910832   -2.169851
H     -2.609122   -0.304093   -2.865297
H     -2.472251    1.395833   -3.493784
H     -4.156153    1.327683   -1.748508
H     -2.788537    2.298787   -1.165350
H      1.946702   -1.705758   -0.619279
H      8.008735   -2.030265    2.131142
H      4.430153   -2.774030   -1.335361
H     -2.642759   -1.561678   -0.482642
H     -4.172256   -0.982704   -1.155790
H     -3.519224    2.307457    0.675301
H     -3.178301    0.931155    1.825489
H     -3.341580   -1.512678    1.735260
H     -5.375011    0.610345   -0.286674
H      6.516819   -3.383941    0.115289
H     -4.892765   -0.174626    2.463392
