20

C      1.946169    0.437956    0.114194
C      0.616743    0.724974    0.829606
C      1.464163   -0.763360   -0.713578
C     -1.511625   -0.413879    0.136471
C     -0.355569    0.462261   -0.278716
N     -2.301364    0.141913    1.190282
O      0.318779   -0.188399   -1.296023
Cl     0.691442    0.000000    0.000000
H      2.137080    1.300837   -0.531591
H      2.739951    0.172815    0.807554
H      0.562291   -0.050725    1.644490
H      0.579214    1.721971    1.255022
H      2.180343   -1.063950   -1.465943
H      1.148329   -1.536616   -0.004103
H     -2.108615   -0.611939   -0.776698
H     -1.061073   -1.407720    0.413348
H     -0.720753    1.447446   -0.640979
H     -2.318759   -0.568528    1.979016
H     -3.315305    0.194941    0.870360
H     -0.691442    0.000000    0.000000
