54

C     -6.026812    1.890798    1.298857
C     -5.006083   -2.011989    0.809026
C      2.391019   -1.978310    0.066637
C      7.162247    1.067175   -0.620578
C      5.877071    0.602812   -0.479801
C      1.109874   -1.811250   -0.423675
C     -1.751469    2.142684   -1.553119
C     -2.942694    1.231701   -1.894776
C      2.595463    0.414072    0.117767
C      7.898489   -0.341990    1.128039
C      4.835166   -1.853378    1.912893
C     -3.811711    1.269494    0.346943
C     -3.568317   -0.855935   -0.826704
C     -5.122452    0.759578    0.832872
C     -4.988705   -1.197248   -0.460193
C      3.117835   -0.837411    0.331394
C      8.196431    0.610125    0.173053
C      5.624883   -0.360087    0.500854
C      4.478978   -0.996344    0.873535
C      0.582077   -0.548035   -0.638795
C      6.627816   -0.837779    1.308498
C      1.311870    0.592429   -0.373796
C     -0.608282    1.264366   -1.110917
F      9.458049    1.080742    0.020140
N      6.140338   -1.747507    2.166752
N     -5.762956    0.007668   -0.211886
N     -0.602580   -0.090483   -1.093535
N     -3.275153    0.529265   -0.705238
O      0.571421    1.624312   -0.667238
H     -6.456208    2.356019    0.383204
H     -5.410871    2.621971    1.830685
H     -6.800038    1.440018    1.946178
H     -4.991417   -3.107437    0.633692
H     -4.087967   -1.782839    1.424789
H     -5.864738   -1.791670    1.470345
H      2.856904   -2.932100    0.256513
H      7.402152    1.811003   -1.364820
H      5.051571    0.945509   -1.088621
H      0.518456   -2.683885   -0.642188
H     -1.495634    2.647892   -2.506411
H     -2.094043    2.817748   -0.768027
H     -2.549970    0.511988   -2.642813
H     -3.749105    1.787943   -2.366332
H      3.154994    1.331570    0.319695
H      8.701672   -0.714476    1.766029
H      4.125727   -2.507349    2.430473
H     -3.066421    1.299521    1.209698
H     -3.949180    2.333199    0.031411
H     -2.866617   -1.426908   -0.192207
H     -3.401988   -1.169899   -1.870815
H     -4.929335    0.063246    1.676774
H     -5.509089   -1.762533   -1.245966
H      6.676457   -2.281964    2.906706
H     -5.777125    0.573960   -1.107513
