20

C     -1.962070    0.199282   -0.186799
C     -0.714016    1.091479   -0.277433
C     -1.320107   -0.916044    0.652067
C      1.594504    0.385361    0.175048
C      0.322630    0.032820   -0.532745
N      2.573577   -0.643044   -0.088060
O     -0.173514   -1.171161   -0.102673
Cl     0.689829    0.000000    0.000000
H     -2.179779   -0.185090   -1.188482
H     -2.780853    0.690496    0.328752
H     -0.560189    1.481458    0.742046
H     -0.795059    1.841554   -1.058326
H     -1.966390   -1.777527    0.752729
H     -1.014120   -0.444507    1.606777
H      1.388858    0.437093    1.260472
H      1.992557    1.340004   -0.219860
H      0.543187    0.037349   -1.633084
H      2.590023   -1.304238    0.703058
H      2.460764   -1.095285   -1.006656
H     -0.689829    0.000000    0.000000
