53

C     -4.176073   -2.147203    1.485054
C     -5.343413    0.038044    1.496884
C     -5.620706   -1.495338   -0.388227
C      6.137243   -2.656117   -0.164244
C      6.757981   -0.684947    1.231153
C     -1.271117    3.209500   -0.840555
C     -1.341805    2.240250   -1.966096
C     -0.416285    2.804033    0.316677
C      2.204106   -0.532725    0.475846
C      3.416307   -1.132999    0.773290
C      0.048651    0.151475   -1.802872
C      3.251168    0.768200   -1.156635
C      2.091263    0.432537   -0.496378
C     -1.334173    0.794738   -1.601374
C      0.835504    1.068975   -0.841636
C     -0.128773    1.303225    0.273706
C      4.567582   -0.775753    0.091985
C     -2.440016    0.136405    0.575826
C     -4.638333   -0.984656    0.637304
N      4.434631    0.175835   -0.860729
N      5.813751   -1.367662    0.388197
N     -1.383024    0.701636   -0.143015
O     -2.462029    0.076819    1.847582
O     -3.543839   -0.401755   -0.072829
H     -3.403896   -2.699567    0.910887
H     -3.796523   -1.743847    2.442193
H     -5.073266   -2.790121    1.653159
H     -6.449547   -0.143291    1.553386
H     -4.949530   -0.052854    2.543553
H     -5.219579    1.082369    1.123851
H     -6.267920   -0.706722   -0.822344
H     -5.121508   -1.995831   -1.260168
H     -6.303690   -2.268376    0.030670
H      5.819635   -3.424596    0.596907
H      5.584948   -2.847350   -1.107370
H      7.234681   -2.799335   -0.277181
H      6.715003   -1.077990    2.270179
H      6.586568    0.406261    1.284685
H      7.809837   -0.837928    0.892367
H     -2.270267    3.520454   -0.460911
H     -0.810311    4.154071   -1.261077
H     -0.547554    2.449869   -2.714490
H     -2.320571    2.435515   -2.491650
H     -0.864680    3.087027    1.297470
H      0.588022    3.302052    0.289897
H      1.341922   -0.860247    1.049501
H      3.520365   -1.900586    1.540183
H     -0.031568   -0.872240   -1.393105
H      0.404749    0.238459   -2.822752
H      3.255477    1.525294   -1.941553
H     -2.137669    0.193472   -2.066462
H      1.030530    1.976997   -1.482244
H      0.217741    0.926525    1.254462
