56

C     -5.421457   -1.802818   -1.180099
C     -4.900725   -4.128377    0.385249
C      5.882148    0.666371    0.964893
C      4.541087    0.037394    1.372349
C      6.530458   -0.567443    0.375446
C     -1.065724    5.598665    2.099558
C     -0.690964    6.063295    0.732935
C     -3.060409    0.147296   -0.575500
C     -3.954538   -0.653470    0.353470
C     -3.057499   -2.421187   -1.170131
C     -1.429473    4.783865    0.894254
C      4.262811   -0.755531    0.112751
C      5.385524   -1.101643   -0.458012
C     -1.688197   -0.517916   -0.421035
C     -1.755718   -1.833111   -0.744357
C     -0.522969    0.000760   -0.038870
C     -0.685132    3.513817    0.757405
C      2.922427   -1.063162   -0.355379
C     -0.286931    1.404578    0.345599
C      0.575480   -0.862689    0.004145
C      5.639446   -1.859204   -1.670742
C     -4.192382   -2.013706   -0.298559
N     -1.216004    2.358633    0.366627
N      1.914525   -0.626533    0.358321
N      0.603927    3.255461    0.980556
O      2.584240   -1.769811   -1.477107
O      4.794578   -2.346221   -2.433786
O      6.980682   -2.096148   -2.070876
O     -4.476423   -2.880219    0.746858
O      0.815493    1.993791    0.728370
S     -0.117542   -2.434333   -0.519268
H     -5.439857   -2.518747   -2.028850
H     -5.327906   -0.794281   -1.631289
H     -6.337556   -1.802670   -0.581272
H     -5.087687   -4.685523    1.351196
H     -4.212021   -4.734245   -0.197659
H     -5.902779   -4.029879   -0.082998
H      5.682132    1.379618    0.141263
H      6.420665    1.082431    1.813144
H      3.775914    0.786076    1.566390
H      4.744815   -0.678599    2.170126
H      7.402326   -0.335723   -0.248422
H      6.723796   -1.266419    1.202461
H     -0.257639    5.228709    2.763731
H     -1.848432    6.160699    2.639588
H      0.367953    5.965301    0.423922
H     -1.234285    6.971441    0.357456
H     -3.042916    1.203602   -0.385474
H     -3.409391   -0.111353   -1.617606
H     -3.364564   -0.837325    1.276427
H     -4.885047   -0.142198    0.605708
H     -3.230948   -2.104106   -2.232509
H     -2.952604   -3.519982   -1.180060
H     -2.503474    4.786810    0.655962
H      1.821048   -1.412225   -2.053897
H      7.187722   -2.681814   -2.892401
