51

C     -0.204276   -3.560822    1.813074
C     -3.786779   -2.196915   -1.341078
C     -2.868932   -3.215411   -1.056110
C     -3.487437   -0.875921   -1.016255
C     -1.646331   -2.961444   -0.451001
C      7.379248    0.535108   -0.665041
C      7.006000   -0.856867   -1.036154
C     -4.393583    1.056519    0.704223
C     -3.349208    2.975634   -0.118245
C     -5.562455    1.742930    0.985065
C     -4.500966    3.690059    0.151009
C     -0.911314    1.378875   -0.298686
C      1.452402    1.855816   -0.392724
C      0.411606   -2.336456    1.290696
C     -3.268299    1.615674    0.157252
C      6.096437   -0.134036   -0.121685
C      0.433058    0.790027   -0.618993
C     -5.607052    3.087495    0.698891
C     -2.300545   -0.616303   -0.422601
C     -2.118502    0.825483   -0.160048
C     -1.392218   -1.646698   -0.144119
C      2.808892    1.366559   -0.720102
C      4.850581    0.498277   -0.629780
C      0.694014   -0.395034    0.219333
Cl    -7.083696    3.983690    1.047336
N      3.741999    0.802441    0.060775
N      1.627653   -1.795884    1.601609
N      1.775549   -0.628371    0.946169
N      4.570587    0.898297   -1.884217
N     -0.118071   -1.460809    0.451841
O      3.380668    1.403361   -1.932527
H      0.081857   -3.535777    2.928745
H      0.230865   -4.516811    1.524315
H     -1.311085   -3.531233    1.922910
H     -4.739134   -2.383459   -1.810955
H     -3.130310   -4.218888   -1.318384
H     -4.162050   -0.071961   -1.261853
H     -0.935588   -3.727459   -0.289679
H      8.166111    0.741899    0.082052
H      7.266919    1.299784   -1.444953
H      6.736931   -1.120749   -2.069375
H      7.644340   -1.645542   -0.549422
H     -4.398576   -0.005968    0.991948
H     -2.483509    3.443813   -0.554894
H     -6.436262    1.270676    1.416920
H     -4.527413    4.767656   -0.081029
H     -0.890140    2.424673   -0.150049
H      1.260486    2.761926   -1.020461
H      1.483563    2.140209    0.695796
H      6.109853   -0.380365    0.942646
H      0.404111    0.462300   -1.676995
