18

C     -2.506890    0.666444    0.285843
C      1.623140   -0.199119    1.398242
C      1.869052    0.265637   -0.917514
C     -1.698630   -0.505147   -0.233361
C      2.410335    0.136361    0.335673
C     -0.253949   -0.278415   -0.039819
N      0.310483   -0.395332    1.168379
N      0.532865    0.050516   -1.066682
O     -2.065123   -1.658863    0.453920
O      3.782186    0.347375    0.543097
H     -2.607614    1.441682   -0.488123
H     -3.493277    0.294938    0.644480
H     -1.978486    1.161721    1.152526
H      2.053595   -0.300988    2.389663
H      2.446167    0.525040   -1.770592
H     -1.950983   -0.629008   -1.304166
H     -2.859585   -1.519825    1.027273
H      4.386714    0.596986   -0.228682
