51

C     -1.594436    3.885262    1.238173
C     -4.248166    0.898556   -1.709852
C     -3.729618    2.188602   -1.618819
C     -3.617878   -0.158889   -1.117971
C     -2.544312    2.450444   -0.918683
C      7.402858    0.689664   -1.284296
C      7.365356    1.617274   -0.068724
C     -4.112433   -1.949593    0.942282
C     -2.388355   -3.500327    0.629043
C     -4.952224   -2.970148    1.304372
C     -3.219623   -4.562539    0.994598
C     -0.569206   -1.359026    0.179085
C      1.826909   -1.044381    0.266950
C     -0.597265    2.831575    0.998835
C     -2.809703   -2.189852    0.594812
C      6.629877    0.352643   -0.004503
C      0.557841   -0.442064   -0.232101
C     -4.508545   -4.270787    1.330727
C     -2.469550    0.061070   -0.428537
C     -1.885497   -1.176349    0.146954
C     -1.957101    1.358757   -0.343031
C      3.020133   -0.242012   -0.068080
C      5.148402    0.316013   -0.152503
C      0.368126    0.914400    0.367269
Cl    -5.593029   -5.581037    1.797688
N      4.269531   -0.603450    0.287298
N      0.686159    2.766087    1.468345
N      1.253713    1.610919    1.082630
N      4.388431    1.243866   -0.784762
N     -0.753756    1.697157    0.335752
O      3.137805    0.879665   -0.713824
H     -2.648753    3.534114    1.299244
H     -1.430831    4.147586    2.346938
H     -1.428251    4.854010    0.775736
H     -5.161851    0.695306   -2.249640
H     -4.246420    3.020242   -2.097290
H     -3.972042   -1.191000   -1.203584
H     -2.091180    3.402385   -0.877328
H      8.353774    0.122779   -1.465316
H      6.807944    1.016281   -2.154694
H      6.738172    2.544639   -0.179386
H      8.322072    1.734088    0.471745
H     -4.523759   -0.945405    0.975485
H     -1.382501   -3.830828    0.367705
H     -6.003987   -2.780799    1.584252
H     -2.845629   -5.599754    1.010413
H     -0.262206   -2.308188    0.571221
H      1.785843   -1.189418    1.355293
H      1.903069   -2.071524   -0.196279
H      7.038041   -0.530672    0.561422
H      0.544051   -0.335343   -1.328502
