39

C      5.186413    1.654973    0.348476
C      4.789053    0.902147    1.419285
C      4.827163    1.238772   -0.912233
C      4.047294   -0.246258    1.253488
C      4.085665    0.090017   -1.072346
C     -4.440676    0.572550    0.448428
C     -2.901610   -1.403440    0.333990
C     -4.199901    2.014671   -0.016611
C     -1.421781   -1.752678    0.398275
C     -1.556617    0.001830   -1.336262
C      2.898360   -1.882045   -0.264797
C      3.679581   -0.676154   -0.003272
C     -3.018313    0.089821    0.617080
C     -2.253396    0.924035   -0.356909
C      0.654403   -0.954700   -0.782902
N     -3.178020    1.801102   -1.024980
N     -0.745814   -0.915861   -0.564877
O      1.149439   -0.186631   -1.643919
O      1.521446   -1.776676   -0.117793
H      5.776736    2.570867    0.464547
H      5.073157    1.232851    2.402529
H      5.132721    1.821163   -1.765137
H      3.745978   -0.825656    2.137387
H      3.845906   -0.168215   -2.114822
H     -5.026262    0.559089    1.369047
H     -4.959476    0.066142   -0.400441
H     -3.464422   -1.909976    1.152307
H     -3.359261   -1.694598   -0.615318
H     -5.117008    2.451404   -0.437907
H     -3.754139    2.625440    0.798260
H     -1.100836   -1.543945    1.443083
H     -1.328556   -2.827601    0.198550
H     -0.956122    0.632847   -2.010762
H     -2.292131   -0.573657   -1.946159
H      3.262717   -2.666916    0.458937
H      3.201594   -2.290698   -1.266719
H     -2.723751    0.252825    1.678456
H     -1.450833    1.538175    0.121789
H     -3.628700    1.254982   -1.810382
