39

C      5.364138   -0.135854   -1.646995
C      5.144179    0.890936   -0.754979
C      4.723845   -1.332467   -1.405780
C      4.307855    0.722346    0.344765
C      3.894343   -1.500586   -0.315603
C     -3.970541   -0.336023   -1.060708
C     -2.299643    1.506416   -0.761872
C     -4.637672   -1.283949   -0.055118
C     -1.214867    1.818877    0.214182
C     -1.502098   -0.512927    0.996759
C      2.769647   -0.658740    1.759331
C      3.665114   -0.471901    0.590626
C     -3.385914    0.696180   -0.129556
C     -2.959434   -0.108419    1.047139
C      0.753640    0.569285    0.986704
N     -3.747379   -1.313019    1.085308
N     -0.635585    0.611202    0.740500
O      1.456675    1.581827    0.743319
O      1.414251   -0.531149    1.488401
H      6.019570   -0.011442   -2.513216
H      5.646992    1.828803   -0.945418
H      4.899678   -2.141290   -2.112029
H      4.180886    1.572646    1.008764
H      3.396791   -2.436940   -0.131823
H     -3.196294   -0.872617   -1.652180
H     -4.746236    0.127722   -1.728158
H     -2.755138    2.491878   -1.069811
H     -1.886235    1.052187   -1.684542
H     -5.577802   -0.776767    0.273226
H     -4.819678   -2.277413   -0.489574
H     -1.653694    2.394350    1.067794
H     -0.415806    2.426971   -0.286903
H     -1.249114   -0.894058    2.025641
H     -1.372517   -1.346382    0.297906
H      3.115727    0.015039    2.593889
H      2.914557   -1.695435    2.186074
H     -4.235472    1.348850    0.190075
H     -3.159936    0.431767    2.016958
H     -4.246836   -1.449902    1.985335
