45

C      6.534469    0.186531    0.627564
C      5.997437    0.003475   -0.624491
C      5.747075    0.721595    1.637934
C      4.675729    0.352175   -0.876147
C      4.440217    1.057762    1.358848
C     -4.226638    2.167756   -0.934424
C     -3.062296    2.594270    1.100601
C     -3.597445    0.917330   -0.988963
C     -2.459408    1.358031    1.018932
C     -1.141682   -3.198504    0.273606
C     -0.093793   -2.122757    0.491727
C     -2.412439   -1.654026   -1.254677
C     -4.588613    4.308301    0.207858
C      2.465249    1.259971   -0.148157
C     -3.955927    3.014680    0.122102
C      3.876470    0.884114    0.109136
C     -2.717906    0.506526   -0.022313
C     -1.918182   -3.052622   -0.989387
C     -2.074827   -0.800956   -0.058847
C      0.233302    0.248855   -0.107591
N     -5.108509    5.355289    0.293047
N     -0.652945   -0.819701    0.091154
O     -3.060052   -3.878497   -0.861989
O     -0.185828    1.382970   -0.463480
O      1.608999    0.133168    0.070532
H      7.550890   -0.077203    0.836790
H      6.636538   -0.414715   -1.388238
H      6.144450    0.877205    2.635740
H      4.307559    0.187409   -1.876922
H      3.819474    1.472604    2.129676
H     -4.925568    2.455881   -1.735327
H     -2.877419    3.284850    1.910287
H     -3.803152    0.255629   -1.808344
H     -1.772858    1.078738    1.804246
H     -0.582270   -4.156059    0.217103
H     -1.781326   -3.250614    1.166043
H      0.799216   -2.267234   -0.127238
H      0.105658   -2.078239    1.576055
H     -3.503422   -1.709929   -1.438724
H     -1.889147   -1.212473   -2.156383
H      2.325436    1.531205   -1.225691
H      2.135545    2.147448    0.430892
H     -1.337586   -3.433227   -1.886017
H     -2.515349   -1.389561    0.821266
H     -3.159127   -4.227450    0.042208
