59

C      5.205404    1.738350    0.943930
C     -1.913569   -2.875069   -1.671102
C      0.742346   -1.896938    1.140606
C     -4.184515    2.669832   -0.983934
C      4.289203   -0.526759    1.189526
C      2.194142   -0.233492   -2.251048
C      2.840069   -0.178764    1.470282
C      0.908812   -0.553500   -2.259178
C      4.070428    0.645542   -1.005827
C     -4.829667    0.762351    1.405964
C      4.916834    0.442774    0.217730
C     -2.294820   -1.553444   -1.072191
C      2.913246   -0.361855   -0.953679
C      2.044272    0.036250    0.201271
C      0.164814   -1.017303   -1.092412
C     -3.890320    0.448120    0.265544
C     -1.245924   -0.502605   -1.184859
C     -0.267417    0.279739    0.837140
C     -1.955243    1.697400   -0.279383
C      0.719146   -0.661456    0.232148
C     -1.489883    0.346352    0.026434
C     -2.678022   -0.307850    0.688808
N     -3.374206    1.643969   -0.356435
O     -4.241440    1.490170    2.411964
O     -0.071935    0.893708    1.853150
O     -1.235592    2.715309   -0.443410
O     -2.584899   -0.227556    2.084116
O     -2.655146   -1.630131    0.249911
H      4.534197    1.834753    1.829887
H      6.245893    1.724201    1.343105
H      5.131437    2.622163    0.287268
H     -2.877757   -3.403692   -1.930139
H     -1.379135   -3.547299   -0.996644
H     -1.416969   -2.688992   -2.636749
H      0.511710   -1.657505    2.178137
H      1.644194   -2.506241    0.981435
H     -0.113595   -2.537024    0.773519
H     -3.692020    3.100602   -1.869044
H     -4.356571    3.451868   -0.192622
H     -5.148355    2.221146   -1.309348
H      4.419040   -1.554246    0.853244
H      4.839526   -0.405308    2.154830
H      2.706336    0.111255   -3.161266
H      2.439458   -0.997845    2.098444
H      2.802170    0.734878    2.131287
H      0.355883   -0.466261   -3.208955
H      3.593588    1.657965   -0.957279
H      4.643029    0.517981   -1.956346
H     -5.325543   -0.163850    1.733345
H     -5.645328    1.405306    0.973912
H      5.886146    0.010479   -0.103692
H     -3.188972   -1.187734   -1.658058
H      3.280346   -1.395262   -0.878130
H      1.877884    1.140390    0.115616
H      0.088045   -2.141280   -1.174700
H     -4.489810   -0.169031   -0.461934
H     -1.407703    0.128693   -2.078310
H     -4.982642    1.882736    2.962250
H     -3.070599   -1.005994    2.491870
