37

C     -3.844195    2.688918   -0.579560
C      6.675273   -0.010406   -0.648470
C      1.124382    0.923738    0.045763
C      0.794950   -1.373054    0.426975
C      2.477136    0.673391   -0.120171
C      2.138406   -1.618116    0.261666
C     -3.928924   -0.607217    0.518225
C     -2.863091   -1.300342    1.318183
C     -1.968334   -0.075124   -0.775012
C      0.257685   -0.108760    0.324502
C      3.015342   -0.590200   -0.017940
C     -3.384644    0.413329   -0.415635
C     -1.165942    0.195150    0.493246
C      4.451899   -0.835110   -0.197161
N     -1.738439   -0.480948    1.635004
O      4.950553   -1.974447   -0.107037
O     -3.227504    1.671162    0.090075
O      5.295327    0.228097   -0.476780
H     -3.618684    3.635096   -0.043531
H     -4.930068    2.617294   -0.666348
H     -3.382031    2.786354   -1.589430
H      7.199771    0.847113   -0.143765
H      6.986674    0.013359   -1.697851
H      6.941183   -0.936359   -0.118040
H      0.806296    1.953209   -0.055524
H      0.111295   -2.179539    0.645696
H      3.157879    1.509971   -0.342816
H      2.566936   -2.624422    0.343091
H     -4.764733   -0.231872    1.154963
H     -4.405764   -1.403014   -0.117187
H     -3.318824   -1.638656    2.269518
H     -2.485701   -2.227559    0.817191
H     -1.598898    0.557017   -1.580093
H     -2.045249   -1.145193   -1.005882
H     -4.011318    0.464605   -1.313138
H     -1.275473    1.279775    0.693450
H     -0.993170   -1.097238    2.027833
