31

C      2.265897    0.586491   -1.082114
C     -2.995612    0.278563    0.492679
C     -2.027117    1.455066    0.668505
C      3.543178    0.079574   -1.055992
C     -1.133430   -0.539030   -0.942075
C      1.620044   -1.219912    0.262935
C      1.247834   -0.077672   -0.399549
C     -2.011984   -0.834482    0.247959
C     -0.096584    0.474305   -0.439191
C     -0.684993    0.797532    0.908330
C      3.857885   -1.071294   -0.373972
Cl     5.515967   -1.640832   -0.398327
N      2.881789   -1.700458    0.275438
N     -1.080061   -0.543149    1.353093
Cl     0.684374    0.000000    0.000000
Cl     0.687802    0.000000    0.000000
H      2.051665    1.506620   -1.636391
H     -3.697406    0.439775   -0.330348
H     -3.478153    0.113595    1.475250
H     -2.028818    1.988033   -0.305942
H     -2.338548    2.096820    1.513990
H      4.336055    0.607384   -1.594532
H     -0.654646   -1.435094   -1.352273
H     -1.763872   -0.027578   -1.707064
H      0.885231   -1.765330    0.799063
H     -2.417432   -1.829274    0.285449
H     -0.135938    1.402472   -1.041578
H     -0.039316    1.312168    1.588873
H     -1.621636   -0.454292    2.242114
H     -0.684374    0.000000    0.000000
H     -0.687802    0.000000    0.000000
