49

C     -4.097403    0.120744   -2.324792
C     -5.190061   -1.024602   -0.487341
C      6.351776   -0.188739   -0.575470
C      1.801367   -2.146040    0.743353
C      0.462029   -2.042086    0.054877
C     -3.172531    0.227686   -0.006832
C      3.716836   -0.567624    0.234779
C      2.088261    1.574321    0.879251
C     -0.612808    1.110732    1.740924
C     -0.880411   -0.293102   -0.752003
C     -3.816988   -0.640985   -1.047371
C      2.416576   -0.794811    0.632188
C     -1.850792    0.815579   -0.438107
C      1.616547    0.281723    0.950278
C      0.240600   -0.055518    1.368119
C     -1.327504    1.760335    0.608985
C      3.406453    1.813927    0.476872
C      4.208520    0.741093    0.158405
N     -0.309324   -0.908450    0.383788
O     -2.450029    2.475543    1.077833
O      3.919302    3.080123    0.391202
O      5.522597    0.885406   -0.248397
H      6.424399   -0.963297    0.206115
H      6.078453   -0.666767   -1.546235
H      7.391121    0.209062   -0.729434
H     -4.982749   -0.358940   -2.804533
H     -3.258943    0.033218   -3.036347
H     -4.358261    1.161816   -2.084158
H     -5.603356   -0.177591    0.060272
H     -5.872651   -1.300228   -1.308043
H     -5.058831   -1.865531    0.226150
H      1.708447   -2.494103    1.774234
H      2.395828   -2.891618    0.182904
H     -0.095292   -3.006321    0.186194
H      0.687944   -1.999455   -1.051244
H     -3.896966    0.992621    0.307409
H     -2.990325   -0.436149    0.885474
H      4.321507   -1.425806   -0.008274
H      1.487536    2.437403    1.122194
H     -1.415307    0.780343    2.469658
H     -0.045516    1.868233    2.301962
H     -0.035335    0.172475   -1.342929
H     -1.314206   -1.044153   -1.426460
H     -3.266249   -1.562151   -1.265878
H     -2.043111    1.415307   -1.353523
H      0.333125   -0.676973    2.313120
H     -0.666705    2.476311    0.105674
H     -2.817794    2.071088    1.885504
H      4.850226    3.292700    0.109649
