65

C      4.160661    1.830003   -0.649386
C      4.872849   -2.347192    0.553744
C     -0.730544    3.090863   -0.077311
C      4.013271    0.781525    0.403129
C      4.417014   -1.477194   -0.576898
C     -3.571055   -3.104742    1.012680
C     -2.369377   -2.451051    0.835614
C     -4.806174   -2.508138    0.730817
C     -0.167911   -0.616211    0.669812
C     -2.748124    1.589988   -0.669640
C     -5.248527    0.818844   -0.514427
C      0.936715    1.368537   -0.335565
C     -3.868580    0.675263   -0.388692
C      1.090966    0.156594    0.496821
C     -2.470217   -1.146691    0.353772
C     -1.286348   -0.297536    0.106473
C     -4.883218   -1.199389    0.248107
C     -1.414153    0.874928   -0.756494
C     -3.672565   -0.580936    0.084531
C      2.125022   -0.766752   -0.019266
N     -5.853786   -0.343611   -0.118240
N     -0.387046    1.809905   -0.582418
N      3.485661   -0.468817   -0.052845
O      1.744162   -1.899533   -0.456776
C      0.548042   -0.337865   -0.778129
C     -0.449356   -0.747940    0.315933
C      1.025958    1.039367   -0.547170
C     -1.690944    0.030353    0.294799
O      1.658716   -1.222762   -0.654122
O     -0.776885   -2.116511    0.066718
O      0.242456    1.990440   -0.732780
O      2.315058    1.342610   -0.129426
O     -2.779586   -0.532748   -0.048212
O     -1.786144    1.354295    0.625650
H      5.263571    2.011965   -0.794744
H      3.773306    1.520446   -1.642811
H      3.734522    2.790530   -0.308640
H      5.890830   -2.764724    0.407475
H      4.848816   -1.875678    1.536576
H      4.175113   -3.226065    0.588791
H      0.206982    3.721190   -0.105960
H     -1.066545    3.117629    0.965396
H     -1.428482    3.630829   -0.778024
H      4.996393    0.591959    0.896782
H      3.343944    1.209439    1.211921
H      5.265495   -0.973588   -1.112597
H      3.863974   -2.047586   -1.368311
H     -3.565212   -4.116557    1.382967
H     -1.405536   -2.873127    1.034563
H     -5.734740   -3.042808    0.878521
H     -0.078525   -1.477061    1.318801
H     -2.762690    2.374038    0.113670
H     -2.960180    2.096638   -1.634044
H     -5.817607    1.669390   -0.857716
H      1.429256    1.241034   -1.318395
H      1.456573    2.242453    0.150236
H      1.426425    0.455972    1.525877
H     -1.362192    0.493302   -1.820097
H     -6.862190   -0.558274   -0.092408
H      0.117293   -0.443878   -1.780131
H      0.047207   -0.716676    1.301032
H      2.115917   -1.043570    0.201659
H     -0.498525   -2.674005    0.825648
H      2.583298    2.258020    0.217526
H     -2.672504    1.820870    0.821006
