26

C     -1.074785    0.974115    1.361165
C      3.274521    0.136480   -0.252717
C     -2.284476    0.057551   -1.450568
C      1.943523    0.064851   -0.686324
C     -0.799275    0.358978   -1.406718
C      3.626167   -0.388926    0.971743
C     -2.615394   -0.201650   -0.020038
C      1.387941   -1.033160    1.310581
C      0.977026   -0.526097    0.097716
C     -0.405245   -0.625254   -0.301456
N      2.682470   -0.956111    1.717257
N     -1.369493   -0.287131    0.715918
H     -1.667500    1.795443    0.899820
H     -1.395753    0.891892    2.427781
H      0.011328    1.198320    1.390273
H      4.038708    0.608873   -0.883201
H     -2.396503   -0.920882   -1.998389
H     -2.868591    0.865374   -1.914932
H      1.668618    0.475793   -1.644018
H     -0.283266    0.160677   -2.344730
H     -0.694914    1.410613   -1.048302
H      4.673056   -0.313568    1.274025
H     -3.252997    0.584284    0.411812
H     -3.128979   -1.196774    0.117779
H      0.646729   -1.504447    1.948705
H     -0.692917   -1.629244   -0.693183
