50

C      8.159263    1.144215    1.389205
C     -5.136649    2.950744   -0.038795
C      6.720510    0.801840    1.185275
C     -4.307415    1.712679    0.233938
C      6.101540    1.045748    0.043466
C      4.699709    0.704797   -0.135429
C     -1.367213   -3.228392    0.683555
C     -0.355675   -2.223588    1.001686
C     -3.283099    1.594362   -0.877612
C     -2.644784   -3.017522    0.507694
C      0.479978   -1.855241   -0.223669
C      4.051741    0.935176   -1.263507
C     -3.163949   -1.626315    0.635515
C     -2.399690    0.372673   -0.686742
C      0.564368   -0.381469   -0.446307
C      2.650767    0.566983   -1.368346
C     -3.172225   -0.902002   -0.675736
C     -0.229128    0.425688    0.487760
O     -4.524006   -1.775117    1.013632
O      2.038083    0.795489   -2.463768
O     -2.691119   -1.806055   -1.651885
O      0.369033    1.020529    1.435424
O      1.940703   -0.015708   -0.354224
O     -1.595216    0.595018    0.420775
H      8.609980    0.447320    2.125332
H      8.176426    2.156414    1.836578
H      8.704962    1.132649    0.417220
H     -4.736517    3.539490   -0.888056
H     -5.142682    3.642357    0.846711
H     -6.198336    2.653656   -0.220326
H      6.154810    0.343006    1.978697
H     -4.962108    0.809978    0.185063
H     -3.806211    1.849251    1.191649
H      6.685841    1.506502   -0.740565
H      4.169027    0.249524    0.675724
H     -1.023439   -4.274188    0.579660
H     -0.692458   -1.299867    1.445986
H      0.343949   -2.691532    1.758005
H     -3.747999    1.630707   -1.875449
H     -2.619362    2.480984   -0.793285
H     -3.316590   -3.861110    0.269422
H      1.482515   -2.335807   -0.150745
H     -0.044864   -2.315321   -1.110025
H      4.570453    1.393234   -2.091574
H     -2.708968   -1.062830    1.461624
H     -1.731023    0.353352   -1.596220
H      0.257482   -0.085044   -1.485483
H     -4.213206   -0.650855   -1.035989
H     -5.064186   -2.097721    0.240303
H     -2.053020   -1.348684   -2.262687
