63

C     -0.382931   -3.868308    1.642563
C      1.171085   -0.847902   -2.142575
C     -2.232807   -2.027662   -0.619640
C      5.568311    0.717204   -0.719438
C      3.772565    2.396159   -0.485391
C     -3.681006    1.396039    2.005038
C     -5.360517    1.571689    0.210126
C      0.426645   -3.044966    1.006121
C      0.552184   -1.648721    1.499775
C      3.560452   -1.003358   -0.297719
C     -3.488044    0.417340   -1.300913
C      2.275244    0.721364    1.041290
C     -1.552578    1.315799   -0.167806
C      1.809124    0.320435   -1.384923
C     -2.455985   -0.939053    0.415394
C      3.587681    0.120228    0.658251
C     -2.983848    1.600251   -0.450941
C      3.287699    0.049135   -1.382600
C     -3.740895   -0.263605    0.054599
C      1.201598    0.542810   -0.040802
C     -1.359361    0.016863    0.591301
C      4.097904    0.964715   -0.522495
C     -3.946754    1.100658    0.592513
B      0.126270   -0.559639    0.393979
H     -0.941016   -3.532245    2.503239
H     -0.525106   -4.898427    1.340856
H      1.754422   -1.024041   -3.069292
H      1.246546   -1.784600   -1.553410
H      0.143739   -0.602348   -2.457533
H     -2.985540   -1.975055   -1.463429
H     -2.473879   -3.020819   -0.159084
H     -1.259280   -1.996785   -1.099081
H      5.772990   -0.013257   -1.536613
H      6.084804    1.654377   -1.009014
H      6.037756    0.334704    0.224722
H      4.131206    2.839990    0.490644
H      4.432655    2.907029   -1.249410
H      2.753926    2.688872   -0.733644
H     -2.843271    2.128056    2.190145
H     -4.558739    1.885856    2.527045
H     -3.531046    0.452719    2.602368
H     -6.059369    0.701034    0.183396
H     -5.391463    2.078960   -0.750817
H     -5.739460    2.309121    0.972229
H      0.956193   -3.440515    0.154667
H      1.624019   -1.550741    1.783916
H      0.000062   -1.496093    2.449623
H      2.857044   -1.807629   -0.244342
H      4.600845   -1.416785   -0.413179
H     -2.701160   -0.019274   -1.912078
H     -4.449215    0.606091   -1.801234
H      2.510012    1.824514    1.191017
H      1.900594    0.430257    2.046344
H     -1.006433    1.282998   -1.145025
H     -1.145179    2.196866    0.401851
H      1.675565    1.192907   -2.096188
H     -2.653751   -1.432772    1.416535
H      4.266165    0.078729    1.504390
H     -3.171283    2.579204   -0.879713
H      3.652036   -0.196324   -2.372964
H     -4.618014   -0.933549    0.051982
H      0.726617    1.572134   -0.107738
H     -1.326026    0.349368    1.676283
