72

C      7.041741    4.101942    0.279054
C     -8.567775    3.179737    0.798973
C     -7.569712    3.237689   -0.159067
C     -8.424304    2.297331    1.850361
C      2.229810   -2.860308   -2.810167
C     -6.434170    2.445187   -0.102989
C     -7.293781    1.515005    1.896844
C      1.137333   -2.131722   -3.254902
C      2.511305   -2.899485   -1.456005
C      6.718009    2.006117    1.586125
C      6.965129    1.862965   -0.783441
C      6.589789    0.637736    1.678186
C      6.836835    0.495488   -0.689565
C     -3.820749    1.425542    1.128274
C     -5.049864   -0.312337   -0.064458
C     -2.755562    0.842301    0.263075
C     -3.932909   -1.265437    0.276040
C      2.764466   -2.677668    1.681761
C      4.178881   -2.222870    1.666280
C     -0.861023   -0.647302   -2.784496
C     -0.291396   -0.732541   -0.107100
C      6.905256    2.624287    0.363246
C     -6.293968    1.563171    0.950443
C     -5.131742    0.682723    1.096822
C      0.338023   -1.451416   -2.351292
C      6.648535   -0.137606    0.532075
C      0.606086   -1.482676   -1.016374
C     -1.700929   -1.194897   -0.464640
C     -2.011969   -1.112803   -1.919134
C      1.715005   -2.219129   -0.545029
N     -2.684795   -0.580061    0.378892
O     -2.391255   -2.372033   -2.442145
O      7.265624   -2.471869   -0.491951
O      7.165658   -2.380390    1.917469
O      1.875662   -2.176734    0.796297
O      4.922782   -2.406828    0.554258
S      6.486705   -1.861242    0.662435
H      7.934080    4.303603   -0.344367
H      7.120261    4.533351    1.298645
H      6.130568    4.480518   -0.234030
H     -9.448604    3.828495    0.710655
H     -7.701347    3.944668   -0.986714
H     -9.184071    2.225496    2.617016
H      2.874125   -3.404074   -3.500851
H     -5.679410    2.521547   -0.870002
H     -7.216003    0.831293    2.741963
H      0.891550   -2.079796   -4.290784
H      3.335210   -3.480933   -1.132489
H      6.670873    2.608464    2.491038
H      7.112593    2.369708   -1.732022
H      6.440264    0.119598    2.636515
H      6.882648   -0.117300   -1.591299
H     -3.933169    2.494827    0.870707
H     -3.438540    1.413481    2.190922
H     -4.893955    0.229976   -1.011166
H     -5.990608   -0.924761   -0.113087
H     -2.832360    1.172873   -0.789036
H     -1.776569    1.254607    0.642986
H     -4.181978   -1.686940    1.287598
H     -3.916101   -2.122608   -0.425600
H      2.726443   -3.816048    1.761530
H      2.383086   -2.392946    2.729303
H      4.661483   -2.610949    2.600122
H      4.144840   -1.099809    1.855147
H     -0.620580    0.429917   -2.612166
H     -1.124496   -0.852030   -3.832695
H     -0.132512   -1.006452    0.950065
H     -0.198197    0.359290   -0.273925
H     -5.234678    0.060517    2.001368
H     -1.704063   -2.291492   -0.186325
H     -2.868124   -0.427094   -2.116349
H     -2.919388   -2.188863   -3.243726
