26

C     -2.188879    0.545588   -1.345060
C      3.096096   -0.266046   -1.401859
C     -1.264139   -0.257160    2.054931
C      1.823305   -0.727482   -1.207525
C     -0.483796   -1.216261    1.205838
C      3.551173    0.864919   -0.751675
C     -2.144539    0.438871    1.055115
C      1.429213    1.054271    0.286461
C      0.967550   -0.066171   -0.353046
C     -0.435885   -0.570462   -0.137235
N      2.685801    1.473164    0.067307
N     -1.353378    0.529325   -0.167338
H     -2.497362   -0.458398   -1.672939
H     -3.069264    1.179352   -1.125761
H     -1.617171    1.007471   -2.188147
H      3.755543   -0.803675   -2.081201
H     -1.864835   -0.842103    2.804273
H     -0.578129    0.444990    2.571912
H      1.448950   -1.624097   -1.717236
H     -1.069843   -2.151722    1.123576
H      0.522389   -1.434105    1.632223
H      4.551023    1.193548   -0.929541
H     -3.095365   -0.102504    0.894066
H     -2.318052    1.506814    1.373698
H      0.772397    1.589531    0.961797
H     -0.622801   -1.307659   -0.952632
