38

C      2.533759   -1.155480    1.390800
C      3.162533   -0.632183   -1.006616
C     -2.282239   -3.045686    0.881200
C     -0.358842    3.196103    0.820268
C     -0.647483   -1.275932    1.036915
C     -2.362972   -1.055831   -0.716612
C      0.437092    2.041585   -1.258791
C      2.152673   -0.577802    0.085343
C     -1.714093   -1.756235    0.418931
C     -0.685127    2.248830   -0.300387
C     -0.111245    0.092817    0.841972
C     -1.596326    0.177479   -1.107298
C      0.658761    0.543339   -1.507004
C      0.992837   -0.025320   -0.171043
C     -1.190464    0.918028    0.174637
O     -0.521647   -0.069397   -1.919311
H      1.913516   -0.770588    2.225532
H      3.602787   -0.904028    1.643663
H      2.491626   -2.258186    1.313661
H      3.293171    0.379244   -1.469414
H      4.170193   -0.916401   -0.637740
H      2.892697   -1.401545   -1.771907
H     -3.253286   -3.279099    0.410854
H     -1.600073   -3.891334    0.657236
H     -2.463232   -3.017158    1.976868
H      0.719899    3.198698    1.076950
H     -0.992331    2.915054    1.692911
H     -0.627892    4.240750    0.559101
H     -0.131961   -1.923895    1.730115
H     -2.571945   -1.701654   -1.567650
H     -3.359984   -0.693503   -0.329388
H      1.376205    2.406497   -0.792932
H      0.312107    2.583058   -2.216927
H     -1.528655    2.718732   -0.875273
H      0.222077    0.504333    1.790236
H     -2.292624    0.857009   -1.647651
H      1.415442    0.366355   -2.266542
H     -2.054952    0.963348    0.835291
