32

C     -0.722212   -1.018663   -1.148182
C     -2.282678    1.374306   -0.318702
C     -0.886899    1.696083    0.058108
C      1.625251   -1.750697    0.335363
C      0.271541   -1.824082    0.959940
C     -2.008150   -0.883350    0.962547
C      2.127251    1.950145    0.091020
C     -2.829906    0.158798    0.313783
C      2.088359   -0.357085    0.177580
C      1.335633    0.715703    0.322372
C     -0.107235    0.592940    0.673130
C      3.440405    0.110002   -0.162580
C     -0.614697   -0.779777    0.327439
O     -4.038339    0.007425    0.298489
O      4.444604   -0.634068   -0.378736
O      3.413822    1.489369   -0.202337
H     -0.299784   -0.177834   -1.742987
H     -0.172099   -1.938741   -1.450924
H     -1.787595   -1.103429   -1.461265
H     -2.956687    2.219912   -0.049426
H     -2.363258    1.296176   -1.441662
H     -0.868125    2.578688    0.762629
H     -0.307544    2.061260   -0.836680
H      1.655446   -2.321813   -0.624665
H      2.342123   -2.280692    1.018783
H     -0.182519   -2.815101    0.783171
H      0.317103   -1.661512    2.053777
H     -2.416719   -1.891742    0.866293
H     -1.864040   -0.567460    2.034491
H      1.690585    2.563999   -0.729982
H      2.107085    2.518027    1.062538
H     -0.150720    0.673210    1.791638
