45

C      2.367913   -1.885189   -0.747512
C      2.613979   -0.542197    1.230098
C      0.395853    1.543929    1.317994
C     -2.404736   -0.559456   -1.962814
C      1.822079    1.756922   -1.258101
C     -0.126651   -1.539658    0.668831
C     -2.125607    0.956857    1.420785
C      2.585194    0.520888   -1.050788
C      0.362073    1.726765   -1.087776
C     -1.486757   -1.819777    0.011944
C     -3.360283    0.224222    1.746893
C      0.511853   -0.481951   -0.169070
C     -1.611109    0.695917    0.072751
C      2.015770   -0.507223   -0.139641
C     -0.103180    0.842604    0.078397
C     -2.127624   -0.561491   -0.498338
S     -3.835665   -0.575152    0.219483
H      1.715843   -2.118632   -1.597975
H      3.412945   -1.753070   -1.135809
H      2.422632   -2.652686    0.028420
H      3.547049   -1.183359    1.240492
H      1.907435   -1.117318    1.895237
H      2.920618    0.415302    1.639747
H      1.338162    2.133879    1.114757
H      0.628382    0.891906    2.154467
H     -0.346243    2.357270    1.573044
H     -1.610103   -0.308012   -2.638778
H     -3.275541    0.089216   -2.202071
H     -2.747696   -1.601508   -2.227299
H      2.251831    2.602526   -0.638297
H      2.013745    2.134038   -2.312583
H     -0.241834   -1.284228    1.731796
H      0.451875   -2.492414    0.532972
H     -2.356279    2.058063    1.555146
H     -1.395837    0.751828    2.259062
H      3.596134    0.798809   -0.620527
H      2.864771    0.074897   -2.053412
H      0.010591    2.761687   -0.798198
H     -0.157955    1.493631   -2.019512
H     -2.086273   -2.399659    0.707520
H     -1.297417   -2.469921   -0.890011
H     -4.169789    0.838598    2.187562
H     -3.179020   -0.593536    2.505401
H      0.276354   -0.751744   -1.244900
H     -1.987479    1.528426   -0.599388
