35

C     -5.119897    0.623004   -0.803791
C      4.427092    1.295662   -1.223164
C     -3.746969    0.557338   -0.202344
C     -2.675033    0.222904   -0.906813
C      2.076385    0.557866   -1.337815
C      3.378383    0.402781   -0.618073
C     -1.353639    0.174043   -0.268484
C      0.864497    0.449258   -0.438870
C      1.157599   -0.623476    0.584426
C     -1.230056   -1.156555    0.485491
C     -0.044577   -0.978646    1.413333
C      2.272836   -0.125747    1.418870
O     -2.393234   -1.462983    1.163341
O      0.175212   -2.187684    2.056539
O      2.278606   -0.391981    2.636694
O      3.257322    0.614524    0.797125
O     -0.295101    0.233597   -1.138900
H     -5.066145    0.490182   -1.901124
H     -5.589098    1.580158   -0.498764
H     -5.742700   -0.217943   -0.388171
H      4.126618    2.351804   -1.275362
H      5.367854    1.156676   -0.629128
H      4.654348    0.893645   -2.232336
H     -3.626950    0.791393    0.844507
H     -2.785758   -0.012924   -1.955015
H      2.103473    1.568224   -1.841583
H      2.029059   -0.223528   -2.138920
H      3.777825   -0.648730   -0.704342
H     -1.241937    0.966261    0.501589
H      0.820072    1.419963    0.133205
H      1.532226   -1.514053    0.035279
H     -0.976361   -1.943293   -0.262596
H     -0.291080   -0.158304    2.102708
H     -2.249235   -1.808214    2.071625
H      0.128364   -2.895225    1.374625
