45

C      2.395189    1.766107    1.017357
C      2.759724   -0.602643    1.092971
C      0.386223   -2.022051   -0.258091
C     -2.274265    1.958364   -0.393935
C      1.821737   -0.221628   -2.126808
C      0.020728    0.278515    1.742883
C     -2.298716   -1.725263   -0.017163
C      2.526582    0.602659   -1.100497
C      0.351230   -0.306238   -1.962620
C     -1.353828    0.907762    1.685750
C     -3.783234   -1.414680    0.026817
C      0.565883    0.380158    0.332536
C     -1.588865   -0.450667   -0.433643
C      2.051039    0.442055    0.291300
C     -0.112704   -0.624710   -0.549258
C     -2.067414    0.674356    0.400949
S     -3.773449    0.165603    0.897383
H      3.312201    2.214918    0.536230
H      1.599788    2.500623    0.906477
H      2.562243    1.589193    2.095171
H      2.194211   -0.733566    2.051538
H      2.992445   -1.525360    0.577343
H      3.757130   -0.184842    1.430219
H      1.274940   -2.278742   -0.910871
H     -0.314765   -2.827665   -0.459296
H      0.683275   -2.127454    0.817786
H     -1.668484    2.799326    0.007712
H     -3.320550    2.326705   -0.370877
H     -2.068121    1.786647   -1.491445
H      1.993394    0.295545   -3.122012
H      2.323843   -1.220635   -2.295007
H     -0.004070   -0.737143    2.134742
H      0.668811    0.898539    2.407123
H     -2.258210   -2.472500   -0.852508
H     -1.976469   -2.116116    0.943052
H      3.626356    0.418604   -1.225954
H      2.397312    1.683229   -1.397431
H     -0.075951    0.692701   -2.243724
H     -0.032255   -1.084868   -2.658518
H     -1.890832    0.617667    2.591954
H     -1.176368    2.021382    1.763832
H     -4.191926   -1.306145   -0.984455
H     -4.294582   -2.161326    0.639976
H      0.253005    1.377582   -0.061186
H     -1.992232   -0.253997   -1.475803
