168

C    -14.659485   -1.001969    1.455549
C    -16.909366   -0.496379    0.742925
C      4.454098    0.907338   -0.877599
C     -2.646218    1.048150    2.450550
C     -2.289378   -1.234229    1.664303
C     -5.622314    1.986570    0.561046
C     -9.033069   -1.876191    1.300889
C    -11.265127   -0.141156   -2.580641
C     12.149080    4.342132    1.456346
C    -13.552091   -1.093025   -1.143316
C    -15.024348   -1.094805   -0.933377
C     -6.525237   -0.385676    2.145245
C     -5.070244   -0.337214    2.343905
C     -7.022588    0.065788   -1.507516
C     -2.973208    1.627361   -0.688874
C    -12.876917    0.236494   -0.834386
C     -4.255027    0.950114   -1.143059
C     -8.399587   -0.636608   -1.531017
C     -9.405667    0.450673    1.759740
C     12.833417   -0.675445    2.853893
C      1.089128    2.858511    0.958343
C      9.735568   -2.521341   -4.521163
C    -15.481428   -0.887304    0.433642
C      4.332474   -0.199212   -1.897055
C     -6.311394   -0.211560   -0.257624
C     -7.145863   -0.330538    0.943408
C    -10.769914    0.094258    1.181055
C     11.633826    0.044384    2.299371
C      9.369805   -2.645502   -3.034071
C      1.275831    2.039753    2.172698
C     -4.326389   -0.139299    1.034771
C     -2.123966    0.618159    0.097436
C     11.584987    1.433404    2.863853
C     10.304489   -1.822434   -2.212424
C      1.359578    0.553527    1.981412
C      4.309194   -2.568413   -1.601721
C      3.364781   -2.208769   -0.423123
C     10.063396    1.758403    0.875300
C      8.408016   -0.326013   -2.227695
C      5.233953   -1.361481   -1.660994
C     11.057029    2.383564    1.829471
C      9.638240   -0.759499   -1.403841
C      1.099630    0.067733    0.632813
C    -10.584960   -0.608434   -0.166208
C      2.425504   -1.080785   -0.910235
C     10.506976    0.441105    0.347624
C      7.497127   -1.526271   -2.126173
C      0.169191    1.047781   -0.123819
C     -9.447885    1.326928   -0.583504
C     -2.893194    0.100977    1.270827
C     -5.111645    0.657917    0.061074
C     -8.573027   -0.456274    0.898047
C    -11.399877    0.188521   -1.118263
C     -9.169754   -0.094757   -0.441168
O     12.844499   -1.968555    2.314000
O    -11.764847    0.378231    1.788095
O     10.818905    1.460095    4.033551
O     11.164619   -2.617881   -1.419408
O      0.528879   -0.106593    2.890624
O      4.900478   -3.746110   -1.279474
O      2.681237   -3.297110    0.037231
O      8.810115    1.661106    1.486916
O      7.912034    0.797352   -1.621998
O     -8.659899    2.287043   -0.486797
O     12.610548   -1.180336   -6.469900
O     10.240328   -2.051503   -7.062319
O     12.063747   -3.669521   -6.893504
O      3.288422    3.532699    5.311467
O      1.123538    4.338284    4.190542
O      1.085121    2.114741    5.101858
O     12.107132    2.990805    1.172639
O      0.853415    2.219351   -0.224981
O     11.139514   -2.612496   -4.661710
O      2.992628   -0.604380   -2.084722
O     11.750075    0.064298    0.905088
O      8.050488   -2.577890   -2.778934
O     -0.996301    1.237786    0.538207
O      6.211138   -1.368335   -2.577535
O     10.442320    0.269430   -1.019243
O      2.313189   -0.035828   -0.050866
O    -10.831348    1.496776   -0.867603
O      2.395775    2.539439    2.879170
S     11.467085   -2.432006   -6.300270
S      1.981618    3.119085    4.392754
H    -15.016233   -0.815651    2.457295
H    -13.647871   -1.304481    1.307583
H    -17.119308   -0.657603    1.842478
H    -17.065156    0.581146    0.574258
H    -17.543071   -1.140657    0.126666
H      4.520726    0.550290    0.152112
H      5.350699    1.555308   -1.081453
H      3.585413    1.602907   -1.043188
H     -1.714364    1.630056    2.235897
H     -2.436217    0.501938    3.391778
H     -3.463695    1.744932    2.636967
H     -3.134481   -1.999810    1.646222
H     -1.497531   -1.556817    0.964018
H     -1.969003   -1.173350    2.715663
H     -4.865543    2.648352    0.987893
H     -6.505749    1.934721    1.194700
H     -5.952078    2.530447   -0.378024
H    -10.021876   -1.849736    1.779048
H     -8.970959   -2.575621    0.471894
H     -8.299921   -2.184419    2.078675
H    -10.683774    0.673069   -3.086594
H    -12.272250   -0.052511   -3.120761
H    -10.942704   -1.159459   -2.802415
H     11.213284    4.888745    1.159130
H     12.234274    4.513172    2.558882
H     13.025809    4.849734    0.976143
H    -13.364803   -1.390041   -2.189686
H    -13.092548   -1.904206   -0.523736
H    -15.467051   -0.364022   -1.664703
H    -15.387782   -2.114909   -1.262138
H     -7.166668   -0.476252    3.020310
H     -4.788739   -1.337757    2.791671
H     -4.839316    0.409545    3.117192
H     -6.469799   -0.418434   -2.366512
H     -7.196111    1.091446   -1.808051
H     -3.121757    2.527791   -0.088138
H     -2.400362    1.886034   -1.587164
H    -13.288395    0.924106   -1.659619
H    -13.188087    0.711361    0.080017
H     -3.921812    0.032905   -1.682205
H     -4.764982    1.642155   -1.820385
H     -8.792490   -0.387773   -2.522468
H     -8.253881   -1.737645   -1.523953
H     -9.362395    0.118910    2.826779
H     -9.187615    1.517129    1.635587
H     13.740615   -0.165308    2.535154
H     12.769869   -0.759197    3.965875
H      0.216885    3.563578    1.110899
H      1.946296    3.575701    0.777311
H      9.336883   -3.401902   -5.083898
H      9.456877   -1.547765   -4.952946
H      4.577793    0.300260   -2.885653
H     -5.857819   -1.267770   -0.387736
H     10.744446   -0.545742    2.619984
H      9.665719   -3.732094   -2.808594
H      0.437205    2.228264    2.895243
H     -4.358174   -1.203992    0.578929
H     -1.882010   -0.143770   -0.670428
H     12.627408    1.709313    3.188712
H     11.027079   -1.315125   -2.922566
H      2.409389    0.272012    2.344107
H      3.689009   -2.677291   -2.501552
H      4.011648   -1.794041    0.363548
H      9.939105    2.488352    0.049039
H      8.638512   -0.110542   -3.262760
H      5.619597   -1.305273   -0.590478
H     10.515385    3.194243    2.412047
H      9.180921   -1.302440   -0.511399
H      0.606208   -0.908074    0.472080
H    -10.698362   -1.664668   -0.128981
H      1.488566   -1.629605   -1.098601
H      9.805007   -0.346351    0.768585
H      7.493404   -1.776751   -1.006166
H     -0.081453    0.541976   -1.094660
H     13.505454   -2.006441    1.583045
H     11.184673    0.911134    4.750844
H     10.748859   -3.527567   -1.354043
H      0.979087   -0.256588    3.760136
H      5.238618   -3.771403   -0.369631
H      3.067313   -3.694946    0.871220
H      8.865781    1.058579    2.288474
H      8.509643    1.564201   -1.628581
H     12.168749   -0.288452   -6.442892
H      3.361384    4.523502    5.383976
