172

C     14.776592   -2.324553    0.906911
C     13.711106   -2.354647   -1.259987
C     -3.310816   -0.702969   -2.582112
C      2.687110    2.042062   -0.325226
C      3.101982    1.482962    2.020018
C      5.561297   -0.599400    2.080139
C      8.634438    0.057486   -2.441780
C     12.010093   -0.552315    1.327014
C    -10.702675    3.898421   -2.346183
C     14.078744    0.797064   -0.741957
C     14.978421   -0.286561   -0.388145
C      6.815593    1.972315   -0.140617
C      5.522200    2.048969    0.581021
C      7.706144   -1.383227    0.625999
C      3.178811   -1.515010    0.738855
C     12.994301    1.360175    0.008567
C      4.533299   -1.572009    0.112628
C      9.068548   -1.370801   -0.013504
C      9.360624    2.047873   -1.257668
C     -0.571664   -1.433434    2.532344
C    -12.954071    0.662357   -0.729669
C     -8.595447   -2.027123    1.729022
C     14.507131   -1.658295   -0.200497
C     -3.613725    0.654353   -1.987580
C      6.724476   -0.509926   -0.100988
C      7.335372    0.807329   -0.434532
C     10.719750    1.447383   -1.583940
C    -11.990053   -0.006090   -1.669536
C     -7.545379   -2.258667    0.677144
C     -1.384703   -0.307851    3.065219
C      4.724334    0.849753    0.195968
C      2.449741   -0.225441    0.435244
C    -11.852542    0.796634   -2.948557
C     -8.186164   -3.025758   -0.462923
C     -0.972852    1.008820    2.480581
C     -4.550574    1.710710    0.072629
C     -3.337471    2.570894   -0.011467
C     -9.391927    0.806696   -2.761002
C     -6.621976   -1.905131   -1.928660
C     -4.426429    0.437939   -0.732035
C    -10.606301    1.662168   -2.898181
C     -8.120470   -2.094069   -1.687559
C     -0.701019    0.871680    1.009408
C     10.891589    0.227263   -0.761977
C     -2.172578    1.697986   -0.479463
C     -9.726783   -0.424343   -1.953009
C     -6.065226   -1.190208   -0.726492
C      0.161143   -0.311822    0.720790
C      9.642741    0.763450    1.133078
C      3.281943    0.990352    0.597532
C      5.407432   -0.400591    0.598271
C      8.622326    0.735691   -1.122949
C     11.807444    0.590547    0.405228
C      9.568423    0.017841   -0.135263
O     11.475133    1.933645   -2.386253
O    -11.882042   -0.007141   -4.076493
O     -7.469706   -4.156351   -0.799827
O      0.075950    1.598904    3.185158
O     -4.779370    1.371203    1.398288
O     -3.539435    3.557385   -0.971628
O     -8.881625    0.439360   -4.012301
O     -5.999760   -3.108847   -2.195074
O      8.867616    0.845854    2.116289
O    -14.375443    2.145560    1.078940
O    -16.344077    0.675677    0.138049
O    -15.915927    2.819275   -0.881287
O    -11.022217   -4.500452    3.679802
O    -11.251270   -1.961773    3.020602
O     -9.594394   -2.615232    4.664091
O     -3.137071    0.267201    5.362322
O     -5.113307   -0.486007    3.844373
O     -3.471305   -2.139644    4.563457
O    -10.720629    2.588286   -1.866142
O     -0.531042   -1.458204    1.138081
O    -14.188417    0.871530   -1.338952
O     -9.099250   -3.248649    2.202068
O     -2.427263    1.300163   -1.759514
O    -10.754810   -0.215176   -1.071679
O     -7.084524   -1.011553    0.248398
O      1.374394   -0.185727    1.349373
O     -5.718704    0.098489   -1.116896
O     -8.613716   -0.881480   -1.245440
O     -1.946867    0.672150    0.401777
O     10.861838    1.471816    1.101240
O     -2.738588   -0.517738    2.719782
S    -15.235832    1.619572   -0.260610
S    -10.261198   -3.037781    3.366737
S     -3.665483   -0.708098    4.111893
H     14.424105   -3.334977    1.019803
H     15.343727   -1.880136    1.704531
H     14.414196   -3.046706   -1.802570
H     12.953766   -2.981290   -0.788558
H     13.338112   -1.660212   -2.024350
H     -4.132579   -1.078053   -3.213312
H     -2.376369   -0.660744   -3.190306
H     -3.105249   -1.474134   -1.787474
H      1.964439    1.608554   -1.051113
H      3.480575    2.605281   -0.891545
H      2.137391    2.763935    0.277055
H      4.039120    1.801281    2.509074
H      2.438609    2.379368    2.058611
H      2.574989    0.704426    2.646038
H      4.613100   -0.526999    2.607882
H      6.276327    0.074443    2.557873
H      5.898528   -1.666881    2.213295
H      9.683561   -0.226449   -2.668791
H      8.372982    0.836357   -3.217384
H      7.926332   -0.756008   -2.580770
H     12.970170   -0.388819    1.856141
H     11.259704   -0.502696    2.204239
H     11.994248   -1.549767    0.900818
H    -10.793866    4.640824   -1.545859
H     -9.753495    4.083579   -2.901090
H    -11.532581    4.090666   -3.071062
H     13.758033    0.555298   -1.837615
H     14.784293    1.699455   -1.011077
H     15.573575    0.057894    0.521022
H     15.827468   -0.380113   -1.166714
H      7.324400    2.873400   -0.420711
H      5.798925    2.099843    1.660120
H      4.995318    3.014991    0.390277
H      7.806654   -1.188466    1.689516
H      7.330631   -2.443938    0.532580
H      3.192595   -1.763362    1.822319
H      2.572950   -2.334437    0.263375
H     12.634786    2.344207   -0.479649
H     13.430565    1.755657    1.013339
H      4.990953   -2.540959    0.313870
H      4.375451   -1.470458   -1.000291
H      9.061288   -1.823644   -1.025724
H      9.705548   -2.026402    0.610464
H      8.960999    2.612386   -2.098112
H      9.434268    2.624850   -0.338630
H     -1.080992   -2.390375    2.839132
H      0.459898   -1.414689    2.893704
H    -12.560724    1.639988   -0.356080
H    -13.099144    0.010325    0.178910
H     -8.183852   -1.496007    2.622040
H     -9.424407   -1.380856    1.350197
H     -4.177686    1.226758   -2.739606
H      6.552472   -1.013716   -1.099827
H    -12.404389   -0.992487   -1.944918
H     -6.727270   -2.836789    1.152053
H     -1.276024   -0.323515    4.178099
H      4.713113    0.845352   -0.936198
H      1.997085   -0.322840   -0.568834
H    -12.721176    1.481898   -2.998558
H     -9.259934   -3.234164   -0.284435
H     -1.849179    1.734760    2.539555
H     -5.475076    2.274002   -0.255503
H     -3.110660    3.089437    0.946606
H     -8.553522    1.314092   -2.241354
H     -6.519711   -1.280853   -2.857228
H     -3.980349   -0.403654   -0.171799
H    -10.528451    2.241755   -3.848526
H     -8.647961   -2.526484   -2.536272
H     -0.225551    1.816213    0.610746
H     11.280841   -0.635668   -1.329870
H     -1.305711    2.408625   -0.510063
H     -9.930576   -1.227400   -2.718496
H     -5.215578   -1.707556   -0.232515
H      0.321025   -0.389660   -0.382457
H    -12.302377   -0.899933   -3.878115
H     -7.709965   -4.954617   -0.284594
H      0.128536    1.256298    4.109001
H     -4.366600    2.010134    2.032478
H     -3.182683    3.226139   -1.838820
H     -8.277132    1.121210   -4.389430
H     -5.164726   -3.226978   -1.701343
H    -14.819606    2.913271    1.536550
H    -10.503971   -5.272179    3.334464
H     -2.890492    1.185964    5.029650
