27

C     -3.184923   -1.382309    0.008975
C     -1.877921   -1.545345   -0.095792
C      1.169292   -1.286566    0.062952
C     -1.607775    0.896748   -0.631704
C     -1.001538   -0.504443   -0.571553
C      0.161456   -0.168798    0.422080
C      2.397374   -1.255978    0.814794
C      0.630659    1.113487   -0.202506
C      1.184317    2.175805    0.654735
N     -0.358312    1.625372   -1.098447
O      2.754354   -0.507170    1.736186
O      3.352555   -2.245400    0.394538
O      2.276072    2.686091    0.569983
O      0.306379    2.680473    1.728281
H     -3.706634   -0.436167   -0.271666
H     -3.764642   -2.159615    0.400827
H     -1.495232   -2.528395    0.252209
H      0.579204   -2.222093    0.291551
H      1.337200   -1.219703   -1.010261
H     -2.395498    0.990380   -1.363300
H     -1.770736    1.185993    0.419355
H     -0.477008   -0.734348   -1.509709
H     -0.141147   -0.130314    1.434806
H      1.531983    0.835276   -0.904049
H     -0.544499    2.646553   -0.978191
H      4.319911   -2.183918    0.527698
H      0.325108    3.674386    1.877476
