30

C      1.765463    0.853699   -0.881303
C      2.264967    0.308027    1.475802
C      0.193110   -1.598118   -1.120837
C     -1.122578   -0.881750   -1.140043
C     -0.113181   -1.103138    1.240677
C     -2.462907    0.665314    0.234782
C      0.955356   -1.329394    0.160143
C     -0.108741    0.358590    0.768783
C      1.303073    0.125943    0.327196
C     -1.081876    0.434906   -0.374201
O     -2.426738    1.890819    0.925646
O     -0.836358    1.486593   -1.226320
H      1.250448    0.610244   -1.812764
H      1.677096    1.957646   -0.661888
H      2.860236    0.680332   -0.991198
H      3.159298   -0.337051    1.240292
H      2.632918    1.347310    1.492893
H      1.821167    0.059888    2.448601
H     -0.005819   -2.700409   -1.131774
H      0.774033   -1.361857   -2.023665
H     -1.944353   -1.521366   -0.755418
H     -1.417241   -0.634519   -2.196262
H      0.248184   -1.246277    2.260528
H     -1.046495   -1.637300    1.073142
H     -3.224034    0.647576   -0.545710
H     -2.707511   -0.142559    0.975860
H      1.727961   -2.050702    0.422124
H     -0.280069    1.095112    1.553612
H     -2.379435    2.610149    0.242865
H     -1.475976    1.412288   -1.981562
