30

C     -2.054149    1.300963   -0.800055
C     -1.205149    1.203592    1.569882
C      1.122118   -1.394196    0.876025
C     -0.384064   -1.591990    1.069116
C     -0.294408   -0.633001   -1.190055
C      2.664915    0.197438   -0.127929
C      1.315781    0.060348    0.530055
C      0.276452    0.562577   -0.407562
C     -1.104057    0.656008    0.206885
C     -1.179332   -0.846009    0.048138
O      2.911881    1.520324   -0.475808
O     -2.434963   -1.331602   -0.220315
H     -1.543194    1.599686   -1.728133
H     -2.936363    0.692728   -0.992582
H     -2.429243    2.261333   -0.339368
H     -1.547203    0.470219    2.349097
H     -2.012367    1.995088    1.577180
H     -0.289870    1.756206    1.910378
H      1.647636   -1.593535    1.854971
H      1.549973   -2.090445    0.157885
H     -0.593114   -1.316478    2.111019
H     -0.625702   -2.666882    0.965348
H     -0.876848   -0.305634   -2.059851
H      0.411366   -1.428260   -1.398710
H      3.480261   -0.105324    0.568516
H      2.738259   -0.486159   -1.006662
H      1.352352    0.629937    1.472263
H      0.527862    1.429752   -1.025501
H      3.893691    1.715681   -0.460344
H     -2.382519   -2.262365   -0.525625
