37

C      5.434862    0.118043    0.575156
C      4.181227   -0.717186    0.439198
C      3.063643    0.175736   -0.057348
C      1.769929   -0.594151   -0.218645
C      0.736471    0.423611   -0.721809
C     -1.886678    1.625388   -0.171060
C     -2.026963    0.876535    1.090150
C     -1.574742    0.773574   -1.406224
C     -0.611630   -0.272180   -0.914281
C     -1.902442   -0.615439    1.029996
C     -3.558287   -0.683178   -0.861571
N     -4.707934   -1.109944   -1.259513
N     -2.847294    0.138656   -1.821493
N     -3.183979   -1.093791    0.456525
O     -0.948901   -1.035698    0.127738
H      5.507881    0.759157   -0.337632
H      6.360553   -0.505764    0.580800
H      5.375257    0.800970    1.436535
H      3.892489   -1.166821    1.411341
H      4.368641   -1.497784   -0.324913
H      2.924626    1.060875    0.577616
H      3.327639    0.548108   -1.079527
H      1.445187   -1.017707    0.741197
H      1.915969   -1.371349   -0.992669
H      0.689984    1.265532   -0.033363
H      1.141303    0.793088   -1.691269
H     -2.770087    2.280941   -0.409003
H     -1.036343    2.340246   -0.081298
H     -1.326880    1.226261    1.898717
H     -3.051169    1.093871    1.512579
H     -1.115243    1.361427   -2.187964
H     -0.436248   -0.952408   -1.803264
H     -1.774535   -1.011952    2.031299
H     -5.081854   -0.872893   -2.201447
H     -5.297437   -1.707344   -0.645182
H     -3.212001    0.277919   -2.759449
H     -3.785014   -1.714348    1.015283
