36

C     -3.499021   -0.209910   -1.705994
C      5.174514    0.119947   -0.311223
C      4.231814    1.076050   -0.557265
C      4.738984   -1.169307   -0.049128
C      2.874827    0.811259   -0.555168
C      3.388930   -1.429981   -0.047266
C     -1.610466    1.744363    0.755236
C     -2.915870   -0.341323    1.170595
C     -0.253693    1.079353    0.765832
C     -1.888485   -1.303346    0.627450
C      2.448581   -0.453445   -0.297260
C     -2.727544    0.867481    0.302580
C     -0.088857    0.122115   -0.368091
C     -1.387318   -0.651215   -0.637119
C      1.047210   -0.783368   -0.259842
N     -2.374127    0.327277   -1.003854
O      0.742778   -2.028195   -0.106954
H     -3.735988    0.499090   -2.546863
H     -3.296916   -1.192355   -2.139667
H     -4.359566   -0.276187   -1.011456
H      6.243533    0.326804   -0.312483
H      4.577179    2.095297   -0.764438
H      5.476748   -1.912875    0.142098
H      2.204443    1.648012   -0.781023
H      3.077511   -2.446077    0.160595
H     -1.825365    2.038584    1.820081
H     -1.622265    2.683773    0.169413
H     -2.816900   -0.149337    2.240704
H     -3.954426   -0.728249    0.996902
H     -0.106587    0.574167    1.762433
H      0.492497    1.870352    0.713647
H     -2.396507   -2.259231    0.402975
H     -1.086816   -1.402409    1.370052
H     -3.630929    1.474162    0.211392
H      0.027294    0.761342   -1.295693
H     -1.169197   -1.382616   -1.438686
