88

C     -6.183122   -0.271356   -3.338860
C     -8.153714    1.319979   -0.314878
C     -2.555330    1.967781    2.942587
C     -2.684517    0.457382    2.900057
C     -3.336343    2.785605    1.934697
C     -1.442608   -0.335580    2.909999
C     -1.927767   -3.901482    1.476639
C     -2.265775   -3.647657   -0.951966
C     -1.319662   -2.894971    2.442007
C     -2.533699   -2.966710   -2.128187
C     -3.386930   -2.099761    0.456723
C     -3.155593    0.939662    0.192279
C      7.226706    1.636409   -1.267898
C      8.077343    2.489140    0.776646
C      3.528780    0.910787    0.726518
C     -2.664967   -3.238787    0.312473
C     -3.773433    2.041388    0.677308
C      7.055537    1.927255    0.067060
C     -1.121478   -1.490806    2.051926
C     -3.632949   -1.392380   -0.741060
C     -3.933324    0.148916   -0.695980
C     -3.259145   -1.763134   -1.979571
C      8.431146    1.910935   -1.895392
C      9.293877    2.770636    0.157583
C      2.393145    0.377363   -0.172755
C     -5.064662    2.335233    0.252347
C      9.474923    2.479910   -1.189594
C      2.902475   -0.614947   -1.147315
C      2.142458   -1.922041   -1.136620
C      1.802864   -2.149777    0.327959
C     -5.174149    0.389346   -1.136116
C     -5.800733    1.571775   -0.636753
C      5.789579    1.656455    0.734356
C      0.771230   -1.131251    0.680529
O     -3.576014   -0.979652   -3.023994
O      8.612683    1.621076   -3.237415
O     10.327602    3.340916    0.880987
O     -5.742433    3.488191    0.718061
O     10.689089    2.767367   -1.781585
O      3.038936   -0.124475   -2.441195
O      2.786536   -2.968002   -1.734361
O      1.309089   -3.421216    0.521848
O      5.665643    1.884835    1.967381
O     -5.850808   -0.387902   -1.999671
O     -7.055088    1.849412   -1.070465
O      4.705677    1.142983    0.009933
O      0.335893   -1.374846    1.955003
O      1.288152    0.148355    0.537947
H     -5.617202    0.474460   -3.919320
H     -6.104019   -1.252851   -3.835095
H     -7.267579    0.017029   -3.461865
H     -9.118776    1.583230   -0.772515
H     -8.043283    1.669105    0.724202
H     -8.092303    0.192697   -0.274187
H     -2.815839    2.342290    3.944892
H     -1.445105    2.216476    2.852516
H     -3.207283    0.185586    3.906730
H     -3.396638    0.169891    2.165968
H     -4.296141    3.039602    2.521937
H     -2.802231    3.680086    1.685621
H     -1.242501   -0.629945    4.000661
H     -0.539675    0.383900    2.783583
H     -1.038184   -4.473418    1.041249
H     -2.483377   -4.646244    1.999067
H     -1.691794   -4.576880   -1.085397
H     -2.050358   -2.884543    3.314196
H     -0.409942   -3.331940    2.871215
H     -2.250337   -3.266704   -3.093966
H     -3.930359   -1.873019    1.455280
H     -2.013017    0.796697    0.323305
H      6.394844    1.189998   -1.799663
H      7.941270    2.713884    1.816384
H      3.638805    0.171725    1.563910
H      3.224110    1.865799    1.203463
H     -1.395810   -1.333147    1.000017
H      2.158828    1.302661   -0.812949
H      3.946877   -0.897169   -0.812177
H      1.183442   -1.740193   -1.658592
H      2.721612   -2.057388    0.961474
H     -0.103789   -1.235841   -0.007601
H     -3.418787   -1.040016   -3.984512
H      7.854034    1.204080   -3.752392
H     10.181254    3.550936    1.870497
H     -5.373688    4.160510    1.340609
H     10.839736    2.566519   -2.756850
H      3.783208   -0.616239   -2.867084
H      2.639542   -3.072486   -2.685151
H      1.585336   -3.831500    1.371765
