38

C      5.290793   -0.567567   -0.929723
C     -3.165293   -2.043899   -0.009897
C      4.186924    1.061309    1.370727
C      4.400107   -1.117086    0.139909
C     -0.893694   -0.245923    0.704631
C     -0.772293    0.943734   -1.355295
C     -4.891665    1.709790   -1.003522
C      0.489044   -0.244069    0.787738
C      0.590156    0.953658   -1.287363
C     -3.534816    1.581305   -0.838162
C     -5.113535   -0.632727   -0.510001
C     -3.737173   -0.722433   -0.351336
C      3.461128   -0.104252    0.730312
C     -1.518086    0.340747   -0.354098
C     -5.658234    0.579182   -0.831885
C      1.228228    0.350657   -0.199627
C     -2.953661    0.377382   -0.514244
Br    -7.551774    0.748344   -1.060251
O      2.597210    0.413663   -0.223642
H      6.345702   -0.448414   -0.590232
H      4.976577    0.423898   -1.303674
H      5.334459   -1.235574   -1.821326
H     -2.121845   -2.078869   -0.359600
H     -3.268693   -2.200965    1.101588
H     -3.773564   -2.869064   -0.478452
H      4.969130    0.688450    2.052158
H      3.429628    1.569516    2.024011
H      4.525936    1.813445    0.651315
H      3.774807   -1.928298   -0.286785
H      5.030713   -1.580110    0.926898
H     -1.445029   -0.715642    1.491482
H     -1.277671    1.417419   -2.210029
H     -5.324143    2.667835   -1.258264
H      0.975868   -0.704308    1.617910
H      1.178637    1.421689   -2.063881
H     -2.926180    2.472869   -0.973088
H     -5.765822   -1.501850   -0.384420
H      2.908125   -0.593843    1.546524
