56

C     -3.440055   -0.611466   -0.005261
C     -4.462518   -1.342136   -0.532793
C     -2.051212   -2.535581   -0.015505
C     -2.413398    4.398047    1.251021
C     -2.512656    2.489058    2.619724
C     -0.666919    1.644628   -0.577567
C      3.728746    1.105586    0.526522
C     -2.219837   -1.202598    0.259676
C     -2.817943    3.797981    2.432038
C     -1.402504    2.343381    0.476369
C     -4.306571   -2.670961   -0.811240
C     -1.710775    3.674276    0.281274
C     -3.072825   -3.276339   -0.545255
C     -1.810267    1.763139    1.651807
C     -0.278851    0.241911   -0.228736
C      3.909861    0.353276   -0.786102
C      4.660153   -0.933918   -0.573587
C      3.729013   -2.082933   -0.966601
C      2.422054   -1.844743   -0.205441
C     -1.087459   -0.392497    0.841672
C      1.800490   -0.608914   -0.820829
O      4.970824    1.235008    1.145588
O     -3.518282    4.560058    3.373694
O     -5.354169   -3.392831   -1.345075
O     -1.355792    4.376884   -0.862867
O     -2.963179   -4.621784   -0.843477
O      5.023417   -1.093356    0.760481
O      4.274742   -3.314471   -0.698967
O      1.586434   -2.969866   -0.354837
O     -1.515596    0.430700    1.875636
O      1.091397    0.153884    0.070280
O      2.724005    0.187478   -1.457308
H     -3.567068    0.444081    0.215434
H     -5.424294   -0.845611   -0.734019
H     -1.108702   -3.002419    0.186690
H     -2.661290    5.440570    1.111096
H     -2.803232    1.973500    3.519821
H      0.263192    2.249536   -0.784318
H     -1.261191    1.714880   -1.524809
H      3.334082    2.110401    0.376489
H      3.073417    0.579459    1.231561
H     -0.416864   -0.370215   -1.163503
H      4.558569    1.002919   -1.415811
H      5.580230   -0.998848   -1.182269
H      3.482481   -1.925437   -2.042419
H      2.593681   -1.745539    0.881931
H     -0.414469   -1.165704    1.326227
H      1.080784   -0.989438   -1.598952
H      5.032140    2.013917    1.727819
H     -3.724246    5.517761    3.201367
H     -6.234440   -2.955130   -1.533408
H     -0.842160    3.850867   -1.573651
H     -3.722609   -5.160149   -1.234209
H      5.976046   -0.850140    0.851694
H      4.793951   -3.586678   -1.513992
H      1.451664   -3.163484   -1.312488
