56

C      1.467423    0.150813   -1.726971
C      1.325679    0.928136   -2.855985
C      1.985111    2.177643   -0.492182
C      2.249863   -4.742394    2.217389
C      3.340417   -3.427953    0.592941
C      0.700648   -1.325673    2.317968
C     -2.039968    2.595410   -2.388033
C      1.800893    0.813389   -0.549848
C      3.197457   -4.654585    1.246270
C      1.564730   -2.477993    1.947193
C      1.501844    2.295281   -2.837962
C      1.428763   -3.702186    2.592609
C      1.831237    2.902033   -1.646890
C      2.519640   -2.363841    0.957855
C      0.567567   -0.455292    1.093213
C     -2.366464    2.165900   -0.979552
C     -3.297070    0.975093   -0.990889
C     -3.720148    0.723401    0.437724
C     -2.537123    0.847486    1.376362
C      1.950237   -0.038445    0.659137
C     -1.290755    0.805328    0.523539
O     -1.352343    3.787150   -2.401186
O      4.023807   -5.718255    0.875673
O      1.350739    3.029966   -3.985752
O      0.474498   -3.845449    3.593470
O      1.999666    4.291836   -1.678740
O     -4.418726    1.367552   -1.757760
O     -4.294347   -0.526978    0.616832
O     -2.552627   -0.207385    2.310472
O      2.721468   -1.177032    0.263110
O     -0.170240    0.689452    1.318790
O     -1.246999    1.987304   -0.210580
H      1.329764   -0.921269   -1.738844
H      1.064014    0.412128   -3.781975
H      2.239614    2.645107    0.428870
H      2.112725   -5.685958    2.746744
H      4.083072   -3.327525   -0.181352
H      1.211088   -0.802789    3.155147
H     -0.283731   -1.725349    2.642454
H     -1.453578    1.756199   -2.844537
H     -3.030182    2.699975   -2.920791
H      0.109009   -1.070212    0.303299
H     -2.952702    3.007615   -0.515684
H     -2.881584    0.096784   -1.491909
H     -4.495985    1.510136    0.667778
H     -2.607070    1.776576    1.982252
H      2.514697    0.451737    1.466425
H     -1.358160   -0.058713   -0.135123
H     -1.412610    4.180552   -3.310333
H      4.924532   -5.857725    1.343677
H      1.110348    2.591670   -4.857742
H      0.388541   -4.742659    4.052998
H      2.240316    4.784733   -0.837986
H     -5.260738    1.132485   -1.304703
H     -4.290129   -0.729685    1.587581
H     -2.016130    0.006474    3.105534
