56

C     -3.416824   -1.190896    0.631019
C     -4.033245   -2.308181    1.138700
C     -1.943110   -2.631727   -0.588183
C     -2.367820    4.780304   -0.516269
C     -3.169725    3.008280   -1.868774
C     -1.160613    1.505953    0.914479
C      3.276696   -2.706385    0.184691
C     -2.354568   -1.350985   -0.246599
C     -3.090448    4.363140   -1.614891
C     -1.811337    2.515643    0.066339
C     -3.645477   -3.591859    0.816692
C     -1.736616    3.862115    0.312706
C     -2.591588   -3.725166   -0.054001
C     -2.531800    2.091327   -1.029846
C     -0.641711    0.315408    0.145122
C      3.323343   -1.542035   -0.775174
C      4.402211   -0.585993   -0.327661
C      3.796786    0.810657   -0.376328
C      2.633447    0.780441    0.607122
C     -1.640959   -0.202872   -0.833439
C      1.617302   -0.193671    0.030776
O      4.604486   -3.184002    0.284897
O     -3.723468    5.298131   -2.444803
O     -4.308899   -4.704388    1.363202
O     -1.025976    4.302343    1.396151
O     -2.202558   -5.028443   -0.377088
O      5.538965   -0.657097   -1.106404
O      4.723623    1.785833   -0.046443
O      3.043159    0.248506    1.842060
O     -2.594238    0.736505   -1.259099
O      0.576553    0.587799   -0.473207
O      2.111274   -0.949353   -0.994436
H     -3.729482   -0.181700    0.890066
H     -4.861024   -2.144451    1.822666
H     -1.108425   -2.752053   -1.277798
H     -2.311793    5.852013   -0.325224
H     -3.731264    2.651394   -2.725819
H     -1.892276    1.149794    1.663206
H     -0.331813    1.965740    1.489459
H      2.900830   -2.433081    1.181617
H      2.693604   -3.553694   -0.249483
H     -0.434709   -0.477858    0.894499
H      3.670860   -1.961122   -1.756921
H      4.705114   -0.777815    0.740912
H      3.382072    0.931468   -1.399287
H      2.237989    1.802474    0.698328
H     -1.092774   -0.528744   -1.744123
H      1.200746   -0.854644    0.820152
H      5.074881   -2.801494    1.046870
H     -3.218186    5.674270   -3.230299
H     -3.976663   -5.609585    1.087561
H     -0.956099    5.278840    1.597755
H     -1.430307   -5.148052   -1.015125
H      6.373240   -0.535399   -0.582328
H      4.848275    2.359366   -0.846197
H      2.330340   -0.344999    2.218557
