33

C      0.362895    3.531037    0.105533
C     -3.762805   -1.394983    0.497364
C      1.876786    1.533239    0.202040
C     -3.021440    0.826176   -0.182246
C      3.312590   -0.369013    0.293858
C      2.458386   -2.582786    0.344056
C      0.592124    2.066864    0.156506
C     -2.690602   -0.620816   -0.277012
C      2.054022    0.171161    0.248684
C      3.520764   -1.723998    0.340988
C     -1.872246    1.696806    0.112818
C      1.176755   -2.035681    0.298149
C     -0.496694    1.225475    0.158436
C      0.976840   -0.676977    0.251087
C     -0.316411   -0.151100    0.205602
O      4.833624   -2.177232    0.384655
O     -2.087036    2.909118    0.337102
O      0.068864   -2.867962    0.299366
O     -1.415071   -0.959631    0.206277
H      1.371728    4.028213    0.045435
H     -0.201641    3.798870   -0.799919
H     -0.094438    3.911895    1.042371
H     -4.075840   -2.278279   -0.076725
H     -4.577903   -0.742874    0.828454
H     -3.273681   -1.786296    1.433059
H      2.718960    2.215663    0.199559
H     -3.454732    1.165396   -1.146275
H     -3.795558    1.021923    0.615298
H      4.168535    0.302933    0.292017
H      2.622186   -3.645959    0.381048
H     -2.711038   -0.952996   -1.356105
H      5.620626   -1.569797    0.383289
H      0.111451   -3.868390    0.331670
