77

C     -5.860523    2.051265    0.139762
C     -6.689235    2.881656    0.854527
C     -4.579960    1.656582    2.080272
C     -4.015462   -3.987442   -2.240160
C     -5.000521   -1.862601   -2.640760
C     -3.492025   -1.709952    0.755579
C      6.050434   -1.201625   -1.610503
C      1.420436   -1.595354   -1.592512
C     -4.768714    1.411202    0.753325
C     -4.709211   -3.161383   -3.068235
C     -3.862814   -2.303205   -0.542218
C     -6.502485    3.134394    2.202455
C     -3.588759   -3.565416   -0.975825
C     -5.436562    2.510181    2.804031
C     -4.578861   -1.456112   -1.399641
C     -2.923189   -0.294043    0.558441
C      6.411473   -0.717621   -0.230072
C      1.442377   -1.214492   -0.125987
C      6.765748    0.750455   -0.324387
C      6.577570    1.397334    1.060538
C      1.383415    1.193762    0.557014
C      5.105499    1.302282    1.372636
C      0.036584    1.091613   -0.160381
C     -3.922724    0.548793   -0.108114
C      2.235784    0.023355    0.118320
C     -0.602253   -0.159080    0.394013
C      4.505672    0.150581    0.643734
O      5.747634   -2.569797   -1.566925
O      2.651607   -1.603251   -2.189553
O     -5.156476   -3.523368   -4.327952
O     -7.366967    3.980936    2.875961
O     -2.888995   -4.428865   -0.169854
O     -5.205803    2.731539    4.152766
O      8.123885    0.841297   -0.616585
O      6.956791    2.728977    1.007177
O      1.987512    2.414522    0.406692
O      4.990674    1.167244    2.770328
O     -0.753194    2.193113    0.236139
O     -4.834502   -0.194981   -0.925808
O     -1.805045   -0.438755   -0.284470
O      5.351329   -0.924689    0.651277
O      0.180525   -1.243287    0.335811
O      3.217914   -0.147033    1.076512
H     -6.030348    1.866812   -0.910451
H     -7.544390    3.387545    0.387585
H     -3.765496    1.199710    2.609159
H     -3.787857   -5.008602   -2.578834
H     -5.557301   -1.173975   -3.288081
H     -4.439771   -1.639890    1.365556
H     -2.790790   -2.316590    1.354147
H      6.904691   -1.107420   -2.321726
H      5.212730   -0.682493   -2.081262
H      1.025622   -2.653961   -1.608070
H      0.664747   -1.021463   -2.171106
H     -2.614699    0.024446    1.562922
H      7.325813   -1.260307    0.083896
H      2.010686   -2.059283    0.378452
H      6.214754    1.301966   -1.093723
H      7.176465    0.794750    1.790040
H      1.159777    1.047449    1.635825
H      4.638890    2.279079    1.121391
H      0.137033    1.123872   -1.245453
H     -3.370354    1.197915   -0.852739
H      2.722061    0.342038   -0.818340
H     -0.904605    0.087423    1.441596
H      4.394697    0.471705   -0.433384
H      5.256431   -2.784995   -2.378509
H      2.836331   -2.475475   -2.592951
H     -5.665173   -2.902952   -4.924542
H     -7.336822    4.234453    3.829443
H     -2.535991   -4.238441    0.740436
H     -5.775044    3.329564    4.714802
H      8.434891    1.754320   -0.355624
H      7.835452    2.856307    1.438867
H      1.403688    3.056891   -0.049525
H      4.872447    0.216862    3.022717
H     -0.707150    2.894010   -0.479886
