59

C     -5.036773   -1.510829    0.346756
C     -6.009083    0.852844    0.015600
C     -0.385924   -3.337172   -0.922001
C     -0.551611    1.218608   -0.885200
C      5.010043    0.833983   -1.924979
C      7.125993    0.630616   -0.772389
C      3.652692    0.601699   -1.903488
C      7.812452    0.203986    0.358288
C     -2.287370    1.897504    1.605665
C     -1.478653    0.696643    1.340067
C     -3.718093    0.367788   -0.571806
C     -2.379804   -1.788465   -0.816221
C      3.792687   -0.383030    0.213916
C      1.051613   -0.837963    0.233147
C     -4.829041   -0.124194   -0.092405
C     -0.820036   -1.921857   -1.020970
C      5.774175    0.431871   -0.816825
C     -2.459691   -0.291176   -0.788852
C      3.019135   -0.002624   -0.852085
C     -0.402726   -1.060190    0.118198
C      5.138825   -0.167157    0.223818
C     -1.798158    3.164232    1.032596
C      7.129983   -0.396296    1.385190
C     -1.251660    0.200581   -0.029417
O     -0.597667    3.547688    1.076300
O     -2.718060    4.015036    0.390383
O      7.687548   -0.807504    2.439584
O      1.657207   -0.226011   -0.857450
O      5.849657   -0.551066    1.272975
H     -6.130947   -1.651616    0.650560
H     -4.834446   -2.258894   -0.434187
H     -4.505513   -1.678031    1.306665
H     -5.988547    1.324745    1.013948
H     -6.927515    0.300645   -0.181788
H     -5.845696    1.654212   -0.727307
H     -1.164538   -4.073463   -1.155683
H      0.469483   -3.475130   -1.650556
H      0.069470   -3.579107    0.070194
H     -1.249953    2.056191   -1.064917
H      0.352405    1.598983   -0.403288
H     -0.336866    0.812900   -1.910748
H      5.549094    1.300003   -2.721169
H      7.645707    1.104399   -1.591345
H      3.071906    0.912481   -2.754628
H      8.874086    0.325040    0.471372
H     -2.301523    2.091418    2.756056
H     -3.349508    1.762303    1.392889
H     -1.778448   -0.170919    2.029781
H     -0.425921    0.911406    1.751546
H     -3.816043    1.461955   -0.859955
H     -2.869913   -2.278515   -1.651320
H     -2.558343   -2.191313    0.187361
H      3.334192   -0.861368    1.061736
H      1.522251   -1.861285    0.334471
H      1.250597   -0.328463    1.204407
H     -0.650225   -1.449306   -2.000440
H     -2.226953   -0.034639   -1.923778
H     -0.743021   -1.552775    1.062533
H     -2.412933    4.570600   -0.405613
