56

C     -1.452402    1.809769    0.463454
C     -2.119575    3.033345    0.333235
C     -3.134773    1.122441    1.966631
C     -3.156484   -3.306178   -2.106020
C     -4.066768   -2.113836   -0.283099
C     -0.394086   -2.370870    0.247851
C      4.520960   -1.188455   -1.801162
C     -1.951078    0.856234    1.273076
C     -4.258041   -2.778916   -1.485370
C     -1.683255   -2.564545   -0.431322
C     -3.288720    3.298554    1.017190
C     -1.853225   -3.216280   -1.604591
C     -3.795517    2.321558    1.843772
C     -2.804209   -2.012710    0.226771
C     -0.281239   -0.899944    0.626480
C      3.659802   -0.232436   -1.052199
C      4.405304    0.916805   -0.459556
C      3.388163    1.906477    0.093788
C      2.509198    1.212616    1.093763
C     -1.365010   -0.497410    1.525676
C      1.844550    0.051366    0.342063
O      5.261492   -0.461765   -2.734643
O     -5.544408   -2.896651   -2.030495
O     -3.971872    4.490530    0.913408
O     -0.792592   -3.776051   -2.291414
O     -4.986888    2.564412    2.554005
O      5.243017    0.453812    0.543369
O      3.994341    3.045814    0.579661
O      1.579488    2.128790    1.565264
O     -2.476528   -1.378993    1.410925
O      1.003477   -0.693836    1.094113
O      2.868010   -0.843110   -0.085046
H     -0.547822    1.623270   -0.076348
H     -1.722662    3.801983   -0.315794
H     -3.567406    0.389241    2.623294
H     -3.295438   -3.829879   -3.049607
H     -4.904485   -1.675411    0.255382
H     -0.456500   -2.920200    1.222634
H      0.497480   -2.628406   -0.308740
H      3.889489   -1.888644   -2.382791
H      5.231978   -1.746351   -1.186738
H     -0.367640   -0.358731   -0.337496
H      2.932199    0.204190   -1.797972
H      4.989466    1.476149   -1.218508
H      2.734812    2.178460   -0.773995
H      3.064382    0.840284    1.975132
H     -1.091399   -0.585041    2.626885
H      1.468500    0.472633   -0.592626
H      6.142077   -0.873318   -2.916017
H     -5.899813   -2.176747   -2.671439
H     -3.682576    5.260497    0.338490
H      0.133933   -3.707439   -1.921817
H     -5.342769    1.830807    3.157529
H      6.110904    0.916901    0.536692
H      4.779167    2.782882    1.159285
H      2.002989    2.632334    2.304988
