86

C      5.800727    3.456419   -0.263397
C      5.963266   -0.331282   -0.706120
C     -5.320472    6.229037    1.202228
C     -4.994923   -4.783885   -1.071230
C      0.863575   -4.088201   -3.499073
C      6.163002    2.061879   -0.547197
C     -1.231750   -0.026779    4.561453
C     -1.993332   -0.734033    3.657349
C     -0.356884    0.894808    4.097463
C      3.390337   -3.003710    1.886244
C     -1.843251   -0.482825    2.304114
C     -0.229445    1.120566    2.772326
C      3.722520   -1.535101    1.887624
C     -3.029036    2.895762   -1.484650
C     -3.057140    2.591231    0.837710
C     -3.750276    4.064871   -1.377494
C     -3.789054    3.775607    0.949075
C      2.198704   -3.155325    0.991277
C     -1.626161   -3.798233   -2.279895
C     -3.244965   -2.529773   -1.133341
C      5.391688    1.002683   -0.353178
C     -0.969378    0.441989    1.776839
C     -2.664080    2.132501   -0.394957
C     -4.142315    4.522675   -0.152394
C     -2.887092   -3.725497   -1.684169
C     -0.781409   -2.715025   -2.312941
C     -2.374659   -1.445692   -1.176526
C      3.222608   -1.138745    0.448076
C     -0.736396    0.744689    0.381098
C     -1.127393   -1.502061   -1.763229
C      0.301585   -0.071339   -0.334063
C      4.021530    1.121360    0.073741
C      0.662637   -1.340975    0.256169
C     -1.157383    0.909019   -1.887776
C     -0.280812   -0.298962   -1.750619
C     -1.902038    0.854728   -0.536757
N      3.193942    0.251418    0.380582
N      1.938430   -1.785688    0.519370
O      3.518776    2.477198    0.153692
O     -0.320325   -2.108693    0.542771
O     -0.357969    2.014526   -2.018775
O      0.686885   -0.282119   -2.723080
O     -4.877535    5.707203   -0.022100
O     -3.725668   -4.812654   -1.660178
O      0.481436   -2.846751   -2.926454
O     -2.753807   -0.244423   -0.606564
H      5.393216    3.994856   -1.145655
H      6.795028    4.007437   -0.017206
H      5.170264    3.624264    0.618651
H      7.049776   -0.188688   -1.038039
H      6.048349   -1.013504    0.144555
H      5.490832   -0.767888   -1.619458
H     -4.572227    6.906570    1.648776
H     -5.591147    5.423853    1.928955
H     -6.237940    6.853662    1.063141
H     -5.493488   -3.796291   -1.119354
H     -4.941043   -5.061954    0.014305
H     -5.716011   -5.479101   -1.601485
H      1.934488   -4.027519   -3.736539
H      0.752151   -4.906628   -2.747881
H      0.223872   -4.370168   -4.344091
H      7.160088    1.896298   -0.963300
H     -1.343008   -0.218399    5.618470
H     -2.702611   -1.471185    3.999092
H      0.245605    1.456219    4.792254
H      3.222329   -3.424826    2.899531
H      4.293396   -3.524296    1.488027
H     -2.474155   -1.045383    1.656462
H      0.474237    1.858030    2.433462
H      3.082272   -0.978665    2.632727
H      4.748978   -1.282225    2.046070
H     -2.753288    2.596603   -2.495556
H     -2.832468    2.085655    1.762422
H     -4.013344    4.632076   -2.261528
H     -4.087560    4.120366    1.919226
H      1.308997   -3.593142    1.500944
H      2.538172   -3.790245    0.127592
H     -1.353930   -4.767312   -2.719616
H     -4.193737   -2.365514   -0.648207
H      3.896369   -1.685891   -0.244714
H     -0.310198    1.822645    0.382463
H      1.196001    0.520320   -0.543025
H     -1.890720    0.788201   -2.716940
H      2.535269    2.632913    0.151510
H     -0.593198    2.729083   -1.415937
H      1.543684   -0.672622   -2.463149
