51

C      5.928616   -0.234795   -0.171800
C      4.490093   -0.699556   -0.433591
C     -2.557411   -2.153536   -0.630498
C     -3.212002   -1.337024   -1.678005
C     -1.107363   -2.372092   -1.073755
C     -3.960680   -0.274989   -1.419548
C     -0.265100   -2.533676    0.168253
C     -4.177663    0.149504   -0.019668
C      1.193023   -2.294028   -0.238826
C     -3.086482    1.101645    0.423206
C      3.595026    0.301786    0.207755
C      1.860168   -1.335719    0.701309
C     -3.600934    2.496122    0.293251
C      0.616757    1.845371   -0.264885
C     -0.403413    2.685422    0.491628
C      2.124131    0.012690    0.056273
C     -2.634675    3.445877   -0.299147
N      1.393515    1.075709    0.716256
O     -3.147548    4.536396   -0.652043
O     -1.321149    3.170555   -0.448874
H      5.913971    0.871273   -0.278846
H      6.165644   -0.495561    0.883727
H      6.644740   -0.695956   -0.849570
H      4.427963   -1.720232   -0.065755
H      4.378337   -0.723583   -1.541286
H     -2.529758   -1.695047    0.356967
H     -3.007818   -3.168527   -0.554156
H     -3.051676   -1.651014   -2.714744
H     -0.737029   -1.492703   -1.643504
H     -1.014329   -3.299920   -1.655517
H     -4.392583    0.251064   -2.257649
H     -0.406938   -3.542556    0.600732
H     -0.560771   -1.772180    0.931110
H     -4.283988   -0.711599    0.682966
H     -5.160050    0.673500    0.024693
H      1.257991   -1.922352   -1.290753
H      1.687364   -3.285056   -0.190934
H     -2.847871    0.834112    1.474544
H     -2.205955    0.886759   -0.207934
H      3.805543    0.271555    1.313592
H      3.884632    1.307346   -0.155645
H      2.766570   -1.803421    1.105560
H      1.163395   -1.156958    1.552282
H     -4.537067    2.522618   -0.284513
H     -3.889087    2.829184    1.334399
H      1.344029    2.501916   -0.815345
H      0.140641    1.196699   -1.008741
H      0.201699    3.517813    0.959749
H     -0.831179    2.124214    1.319659
H      1.911409   -0.009319   -1.033808
H      2.035262    1.772272    1.168973
