46

C     -0.758865   -3.898075    1.091843
C      0.788908   -2.178280    2.491362
C      3.802671   -0.472419   -2.332945
C     -5.365614    1.058924   -2.027445
C      1.722355    1.633606    1.768004
C      2.897724    2.318940    1.503074
C     -1.984401   -1.951643    0.244781
C      2.179895    0.268439   -0.121392
C     -3.123899    0.039930   -0.666766
C     -1.031256    1.702798    0.038125
C     -0.884945   -2.406524    0.804353
C      0.308050   -1.621818    1.144718
C      1.381579    0.604962    0.936445
C     -2.006033   -0.482063    0.014769
C     -0.985982    0.330498    0.360449
C      3.700941    1.981808    0.440540
C     -2.119241    2.176660   -0.619369
C      3.351919    0.944926   -0.392958
C     -3.175799    1.370535   -0.981708
C      0.138286   -0.182374    1.140117
O      4.873782    2.663345    0.173882
O     -2.192075    3.523813   -0.950473
O      4.145637    0.576878   -1.480921
O     -4.283474    1.873176   -1.653860
H     -1.351760   -4.452516    0.311344
H     -1.064924   -4.134971    2.109070
H      0.293622   -4.199652    0.924827
H      1.405444   -1.422434    3.027834
H      1.260535   -3.158736    2.390589
H     -0.132066   -2.312711    3.096864
H      2.871628   -0.193165   -2.903021
H      3.571868   -1.421461   -1.816247
H      4.621075   -0.584842   -3.080782
H     -5.674517    0.362852   -1.231352
H     -5.025660    0.469588   -2.920965
H     -6.186283    1.709897   -2.392907
H      1.094620    1.927096    2.631862
H      3.156061    3.144688    2.183651
H     -2.814013   -2.559764   -0.034793
H      1.950270   -0.543456   -0.817439
H     -3.929997   -0.657335   -0.925182
H     -0.179415    2.320828    0.337279
H      1.170844   -1.904468    0.446720
H     -0.146354    0.092747    2.230419
H      5.218268    3.437491    0.723857
H     -1.489404    4.204279   -0.741071
