46

C      1.243998   -4.008878   -0.422002
C     -0.408257   -2.885842    1.922273
C     -4.429057    2.371801    1.245601
C      5.184908    2.288272   -0.440662
C     -1.491816   -0.641583   -1.407677
C     -2.446434   -0.241138   -2.304196
C      2.033501   -1.744630   -0.233914
C     -2.460739    0.633382    0.321308
C      3.021329    0.520321   -0.082105
C      0.674599    1.505206    1.015609
C      1.047290   -2.563772   -0.032618
C     -0.212140   -2.151586    0.576483
C     -1.484479   -0.219720   -0.109749
C      1.939525   -0.334142    0.104386
C      0.777471    0.162648    0.649085
C     -3.422236    0.620311   -1.847074
C      1.747040    2.325199    0.824798
C     -3.443087    1.068896   -0.530257
C      2.919618    1.845653    0.279034
C     -0.394444   -0.711156    0.821933
O     -4.429052    1.078204   -2.684788
O      1.637697    3.680115    1.196680
O     -4.449721    1.943736   -0.100753
O      3.961557    2.749365    0.119140
H      1.982740   -4.056663   -1.235545
H      1.647101   -4.542293    0.452225
H      0.294601   -4.436855   -0.795729
H      0.583168   -2.985499    2.420581
H     -0.845547   -3.862359    1.669869
H     -1.097833   -2.324474    2.576857
H     -4.493527    1.464373    1.899191
H     -5.308159    3.032365    1.388696
H     -3.487109    2.905293    1.500851
H      5.918389    3.135986   -0.453805
H      5.572161    1.396496    0.061839
H      5.004796    2.044447   -1.509568
H     -0.717638   -1.315804   -1.743598
H     -2.429117   -0.590148   -3.326147
H      2.966085   -2.106041   -0.667803
H     -2.470908    0.973170    1.338831
H      3.933410    0.145508   -0.507060
H     -0.253371    1.853475    1.440566
H     -1.038581   -2.509485   -0.123386
H     -0.837574   -0.582427    1.848503
H     -4.479855    0.796805   -3.652249
H      2.439699    4.273468    1.049108
