44

C     -3.428252    0.085870    1.550757
C     -4.669350    1.177299   -0.285040
C     -0.499004    0.825640    1.165269
C      4.412459   -0.126576    0.225590
C      3.102524    0.191919   -0.480167
C      5.395456    1.013497    0.136421
C     -2.693149    0.006229   -1.817119
C     -2.442593   -1.882322   -0.254771
C     -3.414610   -0.892226   -0.802287
C     -2.244947    0.813987   -0.588150
C     -1.093473   -1.322376    0.005226
C      2.216247   -1.016886   -0.318638
C     -3.478328    0.337340    0.085525
C     -0.978050    0.154483   -0.100287
B      0.805218   -0.826379   -1.010353
Cl     2.015746   -1.417692    1.379350
N      8.806830    0.354389   -0.110933
N      6.592686    0.613884    0.830191
N      7.710885    0.723715    0.338870
O     -0.212860   -1.881734   -0.948640
O      0.002242    0.415070   -1.088054
H     -2.739073   -0.689376    1.879681
H     -4.454610   -0.248367    1.865082
H     -3.262094    1.045981    2.067891
H     -5.441915    1.112905    0.531438
H     -4.412121    2.238073   -0.397367
H     -5.179963    0.809516   -1.208139
H     -1.086630    1.768969    1.358388
H     -0.497347    0.151513    2.041710
H      0.563138    1.189287    1.073716
H      4.227894   -0.315877    1.318934
H      4.845258   -1.072552   -0.160044
H      2.677405    1.107017   -0.064733
H      3.365006    0.372190   -1.542624
H      5.567334    1.230065   -0.932350
H      4.908923    1.896711    0.612464
H     -1.869180   -0.506978   -2.338191
H     -3.404318    0.562365   -2.433931
H     -2.841879   -2.343072    0.689792
H     -2.413596   -2.746698   -0.981516
H     -4.359355   -1.304301   -1.134648
H     -2.125310    1.879343   -0.764169
H     -0.698831   -1.616409    1.021634
H      2.725586   -1.867435   -0.830125
