56

C     -6.040094    2.132076    0.587784
C     -1.895123   -1.779799    1.912948
C     -3.631422    2.244791    0.198783
C     -2.560860   -2.720372   -0.184208
C     -3.546263   -1.936535   -0.604502
C      5.980477    0.326676   -1.293965
C      5.336468    0.266726    0.987115
C      7.201296    0.899374   -0.998832
C      6.560667    0.844742    1.320608
C     -2.365587    1.563203   -0.279592
C     -4.808391    0.065262    0.234522
C      3.695490   -1.624148   -1.634746
C     -4.892405    1.544931   -0.166758
C     -1.408674   -2.057543    0.475655
C      5.044207    0.005831   -0.329201
C     -3.619717   -0.479739   -0.488000
C      7.475708    1.153530    0.329610
C     -2.388096    0.136714    0.202694
C      3.764316   -0.603466   -0.727606
C     -1.236397   -0.705673   -0.231972
C      1.323309   -0.695833   -0.528482
C      2.564153   -0.138691   -0.172177
C      0.092999   -0.173812    0.023769
C      1.354691   -1.719630   -1.451606
N      2.521465   -2.163692   -1.983620
O      8.706983    1.736351    0.679798
O      2.689359    0.868850    0.717519
O      0.151623    0.814271    0.798216
O      0.184546   -2.344703   -1.885457
H     -6.144341    3.226621    0.451271
H     -5.994946    1.849884    1.648619
H     -6.977850    1.682905    0.171705
H     -2.992387   -1.679253    1.950919
H     -1.673366   -2.708654    2.503885
H     -1.316911   -0.985784    2.375144
H     -3.645843    3.250300   -0.315441
H     -3.620177    2.449968    1.272897
H     -2.584325   -3.812706   -0.312701
H     -4.381536   -2.434267   -1.083627
H      5.714884    0.106118   -2.323825
H      4.611794    0.018977    1.739891
H      7.933318    1.147449   -1.781078
H      6.788468    1.049992    2.365690
H     -1.537960    2.173469    0.077190
H     -2.377375    1.605326   -1.389465
H     -4.617229    0.021246    1.336315
H     -5.766527   -0.428978   -0.044272
H      4.641147   -1.985104   -2.066947
H     -5.087942    1.552973   -1.263780
H     -0.507214   -2.642120    0.571607
H     -3.637271    0.000548   -1.516010
H     -2.559380    0.175333    1.298390
H     -1.421441   -0.862754   -1.347941
H      8.700095    2.759579    0.700910
H      2.174714    1.430340    1.283018
H      0.024873   -2.421100   -2.888876
