73

C     -4.256352   -3.046548    1.084047
C      6.240167   -1.675053   -0.526687
C      7.193052    0.335116   -1.824726
C      2.297997   -1.467054    1.523520
C     -0.797397    3.501054   -1.221348
C     -4.390195   -1.826360   -2.251710
C     -4.054847   -2.104635    0.182068
C     -4.797187    2.809433    1.468829
C     -3.703681    2.424848    2.212486
C     -4.884855    2.448069    0.144729
C      4.598589    0.061486    0.933342
C      5.513513    0.604943   -0.102281
C      3.210232    0.637814    0.638854
C     -2.716360    1.672957    1.584711
C     -3.908169    1.705653   -0.467275
C      0.353162    2.956581    0.817994
C      0.924890    2.060189    1.813488
C     -3.034734   -3.689741   -1.455791
C      6.284994   -0.217002   -0.788411
C      2.285168    0.055667    1.690376
C     -0.240991    2.506475   -0.252139
C     -2.792760    1.305960    0.272926
C      0.872215    0.613659    1.595459
C      0.238037    0.131402    0.347997
C     -0.388054    1.099666   -0.550666
C     -1.118026   -0.501954    0.565648
C     -1.284388   -1.816568   -0.116089
C     -1.552462   -2.252481   -2.474582
C     -3.444441   -2.264373   -1.143798
C     -1.753115    0.474774   -0.387269
C     -2.102066   -1.563854   -1.295937
O     -0.803425   -2.851856    0.293648
O     -0.769735   -1.768532   -3.331859
O     -2.054722   -3.538973   -2.469583
O     -2.247128   -0.210907   -1.474746
H     -4.717002   -2.805100    2.027864
H     -3.955541   -4.055361    0.866796
H      7.077040   -2.210149   -1.026188
H      6.416352   -1.814733    0.588318
H      5.269041   -2.098228   -0.816969
H      6.637520    0.483785   -2.775192
H      7.557272    1.359106   -1.539598
H      8.080620   -0.285436   -1.994819
H      3.091669   -1.924430    2.151137
H      1.328337   -1.849742    1.904971
H      2.420784   -1.771890    0.470685
H     -0.283672    4.490752   -1.106643
H     -1.859653    3.712406   -1.033884
H     -0.701241    3.140295   -2.249491
H     -4.570302   -0.751802   -2.262999
H     -5.354657   -2.369750   -2.060559
H     -3.996063   -2.212711   -3.206786
H     -4.375177   -1.074569    0.430951
H     -5.606273    3.391307    1.884564
H     -3.632585    2.710285    3.264945
H     -5.763857    2.762125   -0.425376
H      4.912703    0.340426    1.941483
H      4.566605   -1.044564    0.805067
H      5.553768    1.689397   -0.306328
H      3.243471    1.727061    0.752840
H      2.882115    0.330841   -0.381682
H     -1.860494    1.388908    2.206706
H     -3.959123    1.414922   -1.519183
H      0.440072    4.062401    1.004057
H      0.361869    2.313371    2.786484
H      1.956109    2.445238    2.052867
H     -2.542784   -4.097168   -0.553471
H     -3.904391   -4.286757   -1.806395
H      2.688677    0.304227    2.680606
H      0.346633    0.124905    2.472379
H      0.909896   -0.584105   -0.216703
H     -0.087499    0.939229   -1.644823
H     -1.487165   -0.504342    1.599145
