49

C      1.827231    1.408142   -1.460128
C     -0.605409    2.568526   -1.338050
C     -4.771902    2.450387    1.167607
C      2.819751   -1.989395    0.525204
C      4.098906   -2.496231    0.536152
C      3.624921    0.234107    0.415246
C     -2.932341    0.600703    0.183864
C     -2.416266   -1.642483   -0.326911
C      7.156373   -0.577341    0.824515
C     -5.691783   -3.141137    0.357158
C      1.197012    1.316062   -0.110801
C     -0.307613    1.497879   -0.316315
C      2.556745   -0.631628    0.465312
C     -2.031363   -0.306364   -0.297931
C      5.181587   -1.637921    0.486224
C      4.911862   -0.286909    0.426737
C     -4.191142    0.173148    0.626338
C     -3.662696   -2.067288    0.110948
C      1.187761   -0.093121    0.460361
C     -0.690352    0.113014   -0.768406
C     -4.570823   -1.150020    0.597118
O     -5.118174    1.081705    1.118860
O      6.570120   -1.817379    0.481040
O      6.168288    0.334076    0.386019
O     -4.294647   -3.301478    0.194164
O     -5.731165   -1.842407    0.964309
O      0.297708   -0.760474   -0.338055
H      2.500148    0.588757   -1.733115
H      1.086952    1.482256   -2.287325
H      2.415927    2.370441   -1.502202
H     -1.376844    3.264672   -0.947013
H     -0.953473    2.167773   -2.295533
H      0.333751    3.179452   -1.452701
H     -4.377699    2.808750    0.182746
H     -5.681572    3.066908    1.368279
H     -4.026089    2.663291    1.953667
H      2.008033   -2.697816    0.565629
H      4.312260   -3.565170    0.583241
H      3.471149    1.311436    0.368615
H     -2.692295    1.646899    0.227505
H     -1.703231   -2.346170   -0.706412
H      7.264568   -0.476103    1.916206
H      8.123419   -0.428928    0.298825
H     -6.161837   -3.050110   -0.625155
H     -6.132105   -3.905640    1.014331
H      1.581522    2.032417    0.631237
H     -0.737105    1.787444    0.659002
H      0.830097   -0.048234    1.504657
H     -0.668165    0.111504   -1.882007
