53

C      7.599087   -0.006935   -0.078681
C     -3.457636   -2.284599    1.234025
C     -3.977761    3.092158    0.175188
C     -4.784763    2.985609   -0.954813
C     -3.191683    2.034401    0.612775
C     -4.819536    1.789461   -1.682458
C      5.631279    1.479264    0.389294
C      5.266867   -0.522303   -0.803167
C      4.292536    1.783086    0.310184
C      3.905089   -0.211775   -0.882819
C     -0.687339   -2.429037    0.432922
C     -1.746991   -2.370723   -0.602680
C      0.972087   -0.684647    1.078780
C     -0.448221    1.186260    1.127433
C     -3.998178   -1.644973   -1.087417
C      6.140660    0.329122   -0.161802
C     -0.422698   -1.206722    1.210248
C      3.391827    0.928885   -0.337743
C     -3.242760    0.888257   -0.111672
C     -1.237206   -0.004793    0.793853
C     -4.046702    0.744149   -1.255340
C     -2.419544   -0.248633    0.268534
C     -2.952474   -1.628127   -0.008855
N      0.923880    0.725709    0.966046
O      1.513673    2.828305   -0.566114
O      1.133035    0.619381   -1.623784
O     -4.017637   -0.488797   -1.911370
S      1.689602    1.360421   -0.414639
H      7.823492   -0.916296   -0.635736
H      8.200328    0.844376   -0.500056
H      7.881955   -0.093391    0.980291
H     -3.045584   -1.888509    2.163457
H     -4.569920   -2.225898    1.260752
H     -3.219744   -3.373396    1.185247
H     -3.964578    4.027038    0.726454
H     -5.406226    3.784580   -1.323022
H     -2.610004    2.142181    1.494276
H     -5.448587    1.715396   -2.558232
H      6.338629    2.141506    0.893311
H      5.652321   -1.434491   -1.243672
H      3.931413    2.705526    0.760893
H      3.228505   -0.895548   -1.394247
H      0.262608   -2.748199   -0.090615
H     -0.953040   -3.293066    1.114200
H     -1.474888   -1.837854   -1.518691
H     -2.056543   -3.405786   -0.855527
H      1.594262   -1.054498    1.934706
H      1.392657   -1.108002    0.128526
H     -0.572368    2.051655    0.448052
H     -0.482675    1.507188    2.184578
H     -3.828391   -2.501684   -1.804340
H     -4.978590   -1.807581   -0.586057
H     -0.703525   -1.377653    2.276265
