48

C      1.241137   -3.442775   -0.814011
C     -1.353109   -3.325690   -2.064141
C      3.329586    2.083039    2.978126
C     -5.499661    1.363966    1.451421
C      2.488964   -0.572126   -1.124963
C     -0.973316    1.025457   -0.738169
C      3.546404    0.288337   -1.434036
C     -1.094899    2.315251   -0.279051
C      2.397525    0.320091    1.035140
C     -3.115959    0.535040    0.096158
C      0.162254   -2.492983   -0.325553
C     -0.737111   -2.021294   -1.450539
C      1.885668   -0.584528    0.108314
C     -1.980887    0.106157   -0.559849
C      4.017566    1.159248   -0.495955
C     -2.240947    2.712096    0.372812
C      3.437944    1.176461    0.752098
C     -3.276062    1.828374    0.573322
C      0.795804   -1.460407    0.485229
C     -1.899819   -1.268863   -0.974915
O      5.070291    2.041375   -0.747177
O     -2.353890    4.014525    0.831924
O      0.332313   -1.313821    1.671528
O     -3.009434   -1.926006   -0.905438
O      3.923296    2.070680    1.711383
O     -4.407699    2.244163    1.223666
H      1.101668   -4.485699   -0.450567
H      1.292127   -3.436631   -1.933200
H      2.210940   -3.087123   -0.429664
H     -2.142560   -2.950863   -2.747181
H     -1.856598   -3.901760   -1.268039
H     -0.597107   -3.870260   -2.627109
H      3.987227    2.708324    3.639780
H      3.270598    1.087186    3.441645
H      2.290367    2.511886    2.969371
H     -5.086845    0.510031    2.041299
H     -5.869673    1.014609    0.473398
H     -6.308646    1.832260    2.010879
H      2.151918   -1.231544   -1.898698
H     -0.067993    0.751278   -1.276048
H      4.015008    0.291800   -2.404794
H     -0.286504    3.052623   -0.420910
H      1.980346    0.376424    2.030309
H     -3.975931   -0.132158    0.284108
H     -0.497660   -3.165937    0.326632
H     -0.202234   -1.526473   -2.209355
H      5.539035    2.079025   -1.642679
H     -1.633442    4.697235    0.713505
