50

C      9.115317    0.023583   -0.659819
C     -5.975273   -2.000491   -0.205046
C     -7.669266    0.314477    0.740425
C      8.616739   -0.896882    0.410324
C     -5.620620   -1.095591    0.927295
C     -3.472980    2.043327    0.554859
C     -3.377032    0.196636   -0.905494
C      3.011342    1.283178    0.266966
C      2.956246   -1.054160   -0.014230
C     -2.086691    2.057099    0.629378
C     -1.981824    0.212370   -0.828893
C      4.387084    1.275359    0.364682
C      4.348845   -1.088307    0.081570
C      7.132067   -1.170549    0.271371
C     -5.587019    1.120571   -0.282324
C      0.833447    0.117030   -0.027487
C     -6.156361    0.292433    0.815310
C     -4.122101    1.110768   -0.214480
C      2.270886    0.137722    0.078004
C     -1.316054    1.143451   -0.059836
C      5.074723    0.076613    0.271796
N      0.102567    1.197514    0.048255
O      6.459093    0.073238    0.370660
H      9.227032   -0.559513   -1.594417
H      8.418854    0.857356   -0.877278
H     10.130725    0.380300   -0.366564
H     -6.913754   -2.563127    0.011521
H     -6.090082   -1.399148   -1.139426
H     -5.187344   -2.767702   -0.366691
H     -8.028921   -0.462248    0.046956
H     -8.079187    0.146261    1.757644
H     -7.973566    1.343326    0.450313
H      9.176877   -1.861534    0.322422
H      8.815951   -0.449494    1.415256
H     -4.518007   -1.037604    1.035977
H     -5.993717   -1.519467    1.888696
H     -4.075880    2.765952    1.100276
H     -3.882279   -0.535199   -1.514442
H      2.503193    2.241884    0.344239
H      2.408667   -1.969350   -0.162047
H     -1.580460    2.797147    1.239488
H     -1.381898   -0.498263   -1.364953
H      4.981864    2.170970    0.513560
H      4.868299   -2.035986    0.006404
H      6.799279   -1.788759    1.118204
H      6.921876   -1.607838   -0.712739
H     -5.959198    2.168023   -0.165475
H     -5.893905    0.791865   -1.296083
H      0.276114   -0.796697   -0.175790
H     -5.913666    0.819457    1.782091
