49

C      6.734084    1.279651   -0.178808
C     -4.752756    1.525357    3.273572
C     -5.420924    0.093728   -0.176177
C      5.478430    1.648303    0.600314
C     -5.398309    1.252040    1.956732
C     -2.543088    0.281429   -1.473322
C     -1.587861   -0.945614    0.304189
C     -1.796909   -0.453377   -2.365603
C     -0.840490   -1.680763   -0.599667
C      2.983863   -2.768638   -1.546797
C      1.931993   -0.679412   -1.506554
C      3.893476   -2.324735   -0.634416
C      2.858917   -0.203826   -0.566378
C      5.082982    0.503168    1.477068
C     -3.274509    0.858317    0.824147
C     -4.627359    0.248800    1.108897
C     -2.453572    0.047684   -0.096079
C     -0.920207   -1.459925   -1.958116
C      1.963626   -1.939653   -2.011957
C      3.865612   -1.019106   -0.107336
N     -0.175623   -2.196975   -2.910639
N      1.036976   -2.410018   -2.950990
O      4.813835   -0.653550    0.806552
H      7.380601    0.673092    0.461635
H      7.199109    2.249739   -0.473562
H      6.506316    0.704869   -1.099454
H     -4.362816    0.640152    3.782119
H     -3.971370    2.327816    3.197764
H     -5.547376    1.986148    3.931496
H     -5.720654    1.088165   -0.564932
H     -6.379359   -0.415296    0.094894
H     -4.873777   -0.433126   -0.964570
H      4.696975    1.961392   -0.075757
H      5.801146    2.483112    1.286721
H     -6.477660    0.997297    2.023257
H     -5.371524    2.210307    1.359440
H     -3.216931    1.060618   -1.834811
H     -1.529157   -1.116244    1.375515
H     -1.860513   -0.277668   -3.438510
H     -0.179916   -2.443110   -0.242485
H      3.011083   -3.785434   -1.953205
H      1.151997    0.012324   -1.839824
H      4.687269   -2.971698   -0.273938
H      2.759974    0.804069   -0.197324
H      4.178033    0.811362    2.078517
H      5.941752    0.313607    2.188382
H     -2.689099    0.980496    1.754975
H     -3.433033    1.851907    0.392742
H     -4.553256   -0.716779    1.646505
