50

C      9.237461   -1.923162    0.353558
C     -5.964173   -2.153402    0.772357
C     -7.619295    0.224984    0.192396
C      8.529278   -0.852871   -0.413070
C     -5.441503   -0.737042    0.964229
C     -3.208053    1.362872    0.924800
C     -3.544630    1.588935   -1.393092
C      2.931834   -0.622956    0.367860
C      2.831433    1.200302   -1.129723
C     -1.852379    1.287584    0.738087
C     -2.186618    1.517414   -1.623921
C      4.306066   -0.693107    0.188120
C      4.192287    1.122269   -1.300691
C      7.045533   -0.896565   -0.117981
C     -5.553341    1.595861    0.073856
C      0.739197    0.380329   -0.087593
C     -6.124495    0.200964   -0.003802
C     -4.086792    1.514411   -0.126029
C      2.182756    0.326287   -0.291083
C     -1.321378    1.364668   -0.550189
C      4.964971    0.172482   -0.645307
N      0.082639    1.283870   -0.724446
O      6.334650    0.090265   -0.814409
H      8.664738   -2.230949    1.247964
H      9.396334   -2.846902   -0.245523
H     10.221697   -1.544475    0.706935
H     -7.059361   -2.202966    0.830295
H     -5.620682   -2.491031   -0.220673
H     -5.455879   -2.764463    1.566267
H     -7.907562    0.048538    1.249193
H     -8.066491   -0.517659   -0.494600
H     -7.954597    1.263420   -0.057918
H      8.709731   -0.924730   -1.502559
H      8.911500    0.134344   -0.085673
H     -5.514907   -0.401657    2.015634
H     -4.363170   -0.786320    0.711260
H     -3.611506    1.302115    1.927992
H     -4.256463    1.708945   -2.212335
H      2.431901   -1.320961    1.034317
H      2.262736    1.957601   -1.660034
H     -1.191404    1.168786    1.585887
H     -1.771525    1.576038   -2.619293
H      4.852744   -1.462655    0.733128
H      4.709557    1.815503   -1.966156
H      6.689707   -1.913714   -0.374527
H      6.896409   -0.751291    0.974262
H     -5.751771    2.076106    1.053983
H     -6.003833    2.217868   -0.727199
H      0.232032   -0.300157    0.565177
H     -5.925383   -0.163725   -1.030935
