56

C     -2.269483   -1.659635    1.923581
C      6.374373   -0.384012    2.118617
C      5.302659   -0.283368    1.245374
C      7.548954   -1.674175    0.530270
C     -3.250096    1.260687    1.918140
C      5.038329   -1.665308   -2.030652
C     -1.032721    2.588594   -1.834133
C      1.011604    0.009989    0.037383
C     -2.398228   -0.733657    0.751346
C      7.506816   -1.083237    1.762255
C      5.376170   -0.895605   -0.000613
C     -2.077001    0.675101    1.128599
C      4.448178   -0.928195   -1.031370
C     -0.679936    1.627531   -0.870239
C      6.495283   -1.589661   -0.359300
C      0.612635    0.956793   -0.862096
C     -1.783037    1.507725   -0.065850
C     -3.768144   -0.851549    0.184315
C      3.137314   -0.293831   -0.972987
C     -2.741249    2.373190   -0.553843
C     -4.704821    0.146504    0.307119
C     -4.076842    2.508505    0.041821
C      2.743593    0.657967   -1.881561
C     -5.575444   -1.526383   -0.832088
C     -4.440375    1.404303    1.010138
Br     8.980912   -1.223232    2.971877
N     -6.410640   -2.256393   -1.508247
N      6.264853   -2.047926   -1.597779
N     -2.266768    3.016800   -1.621691
N      2.246985   -0.594650   -0.025207
N      1.540456    1.250124   -1.822996
N     -4.304598   -1.847788   -0.500580
N     -5.804947   -0.306946   -0.331977
O     -4.820964    3.453329   -0.240380
O      3.580357    0.944597   -2.777429
O     -5.527398    1.835593    1.767965
H     -1.209244   -2.019274    1.924128
H     -2.919372   -2.569573    1.831528
H     -2.496556   -1.118965    2.849716
H      6.356217    0.084154    3.107259
H      4.426370    0.272393    1.552204
H      8.428194   -2.226785    0.231826
H     -2.919638    2.272783    2.293163
H     -3.500655    0.587708    2.742194
H      4.584350   -1.891592   -2.988802
H     -0.368958    2.910559   -2.622575
H      0.356190   -0.293700    0.830006
H     -1.705994   -1.040009   -0.069400
H     -1.232749    0.744704    1.837453
H     -7.353937   -1.914724   -1.704621
H      6.920495   -2.619329   -2.166686
H     -2.762052    3.734934   -2.204451
H      1.282074    1.969131   -2.532929
H     -3.854128   -2.764358   -0.768389
H     -6.702230    0.198595   -0.432848
H     -5.605155    1.311567    2.622218
