56

C     -3.091479   -2.420678    0.646658
C      7.228132    0.074782   -1.346520
C      5.954019    0.111455   -0.856468
C      7.978632   -0.934042    0.664348
C     -3.547935   -0.945090   -1.705837
C      4.804433   -1.025316    2.305083
C     -0.795880    2.675047   -1.259896
C      1.747542    1.655515   -0.272052
C     -2.709582   -0.942226    0.553525
C      8.260752   -0.449628   -0.591432
C      5.632407   -0.365257    0.398922
C     -2.287532   -0.669962   -0.866644
C      4.448989   -0.442460    1.110023
C     -0.619209    1.340543   -0.848496
C      6.681147   -0.891435    1.150998
C      0.628154    0.810301   -0.316124
C     -1.846566    0.732148   -1.091534
C     -3.926412   -0.188835    0.895470
C      3.153022    0.014939    0.626755
C     -2.710629    1.676618   -1.626914
C     -4.818075    0.276433   -0.000724
C     -4.094227    1.347599   -2.002285
C      2.073926   -0.831344    0.594656
C     -5.536436    0.854606    1.999357
C     -4.631435    0.064379   -1.453777
Br    10.021289   -0.483061   -1.310667
N     -6.281044    1.371517    2.905015
N      6.118215   -1.279405    2.305701
N     -2.030790    2.846121   -1.712500
N      2.947755    1.259748    0.181712
N      0.847002   -0.422240    0.129514
N     -4.388560    0.179231    2.125584
N     -5.789252    0.906700    0.680491
O     -4.736031    2.123292   -2.734661
O      2.206402   -2.000337    0.996003
O     -5.774453   -0.357529   -2.086575
H     -4.182116   -2.553481    0.394171
H     -2.960663   -2.719454    1.708407
H     -2.433574   -3.033654    0.020657
H      7.456767    0.453337   -2.331833
H      5.134303    0.526336   -1.453828
H      8.797498   -1.339936    1.238229
H     -3.214037   -0.822212   -2.758301
H     -3.876441   -1.977233   -1.591708
H      4.143160   -1.250238    3.124170
H     -0.044006    3.453281   -1.216145
H      1.610017    2.671558   -0.628143
H     -1.913086   -0.757652    1.306007
H     -1.562847   -1.418796   -1.268797
H     -6.129190    1.361429    3.916900
H      6.636220   -1.716743    3.088882
H     -2.434878    3.739079   -2.081639
H      0.073603   -1.091459    0.130161
H     -3.936103   -0.022664    3.041147
H     -6.631531    1.376618    0.233778
H     -5.649386   -0.481430   -3.058819
