45

C      4.860419    2.118837    1.532518
C     -5.909725   -0.660581   -0.874246
C     -4.769551   -1.416438   -0.727241
C     -5.826930    0.698906   -0.774775
C     -2.400750   -1.584315   -0.335623
C     -0.035323   -1.947825    0.043877
C      2.423237    0.716653    1.152699
C      4.600960    1.273286    0.355470
C     -3.537543   -0.809385   -0.478946
C     -1.163540   -1.030631   -0.092163
C      3.340072    0.583673    0.217430
C      1.274974   -1.354047    0.411055
C     -4.591304    1.350517   -0.523096
C     -3.470695    0.562102   -0.381306
C     -1.119954    0.335936    0.000865
C      3.087730   -0.265355   -0.971911
C      2.235414   -1.440901   -0.722887
C     -2.223029    1.173003   -0.131615
C      0.232258    0.887942    0.238348
C      1.151345    0.023005    1.016694
O      5.475497    1.155533   -0.521794
O     -4.548794    2.683417   -0.432693
O      4.329021   -0.663043   -1.468669
O      3.069504   -2.575020   -0.596232
O     -2.096698    2.520311   -0.022388
O      0.505075    2.014757   -0.220132
O      0.610311   -0.153476    2.292143
H      5.913970    2.423620    1.627626
H      4.161421    2.984592    1.523883
H      4.593043    1.539649    2.463419
H     -6.867798   -1.132524   -1.067271
H     -4.817512   -2.507380   -0.803966
H     -6.695048    1.343609   -0.882387
H     -2.540180   -2.668426   -0.427037
H     -0.356267   -2.761275    0.755804
H      0.067706   -2.487596   -0.938064
H      2.611008    1.334656    2.013449
H      1.700455   -1.998349    1.240366
H      2.654339    0.408654   -1.768243
H      1.644219   -1.643172   -1.663337
H     -3.951732    3.396206   -0.286529
H      4.279813   -1.091395   -2.350381
H      2.530034   -3.344994   -0.273772
H     -1.303493    3.030205    0.165081
H      0.874040   -1.022942    2.685976
