53

C      7.620459   -1.002297    0.851853
C     -4.169723   -1.215928   -1.383841
C     -3.671353    3.484908    0.333665
C     -4.679229    3.306211    1.253398
C     -2.938347    2.387900   -0.136062
C     -5.006311    2.046332    1.746971
C      5.616448   -1.003424   -0.662428
C      5.752579    0.642533    1.012260
C      4.408697   -0.475695   -1.070381
C      4.545992    1.171401    0.606339
C     -0.988666   -2.243105    0.016205
C     -2.399358   -2.507213   -0.360995
C      0.920556   -0.783169   -0.302756
C     -0.259438    1.255005   -0.366773
C     -4.128924   -1.512258    1.047489
C      6.314620   -0.452770    0.390625
C     -0.491682   -1.023274   -0.776346
C      3.830038    0.618460   -0.462242
C     -3.291145    1.170951    0.374799
C     -1.261051    0.186270   -0.347601
C     -4.301518    0.953151    1.302305
C     -2.532022   -0.018976   -0.073509
C     -3.247447   -1.312988   -0.157186
N      1.018078    0.600304   -0.089277
O      2.060806    1.072955   -2.432216
O      2.285923    2.777652   -0.737115
O     -4.520866   -0.352988    1.707637
S      2.301223    1.295821   -0.964902
H      8.285199   -0.118934    1.004483
H      8.104466   -1.606895    0.059415
H      7.528546   -1.624393    1.756178
H     -4.959250   -1.973752   -1.361660
H     -4.544697   -0.174308   -1.491171
H     -3.547710   -1.426106   -2.294918
H     -3.466693    4.482421   -0.009130
H     -5.247830    4.154934    1.618139
H     -2.193614    2.558513   -0.852569
H     -5.800861    1.895032    2.473150
H      6.046110   -1.858575   -1.154678
H      6.290577    1.095987    1.851475
H      3.854808   -0.918171   -1.914384
H      4.090811    2.035229    1.087606
H     -0.886734   -1.982953    1.082514
H     -0.291588   -3.061741   -0.229728
H     -2.754284   -3.366800    0.282498
H     -2.439062   -2.915251   -1.395484
H      1.610610   -1.133570   -1.129802
H      1.195478   -1.413063    0.573232
H     -0.082613    1.715867   -1.367032
H     -0.347899    1.999663    0.458256
H     -3.631762   -2.175643    1.787270
H     -5.036045   -2.054441    0.710574
H     -0.564298   -1.198821   -1.864146
