33

C     -2.989027   -0.882509   -0.526421
C     -2.440980    0.956756    0.969465
C      3.252601   -0.075666    0.842884
C      0.084481    1.365985   -0.653591
C      1.185021    1.228675    0.382034
C     -2.221937    0.426398   -0.412297
C     -0.781088    0.144139   -0.732617
C     -0.244397   -0.995190    0.110947
C      1.214771   -1.193837   -0.111090
C      2.034520    0.051721   -0.029138
O     -0.493015   -0.811880    1.464930
O      1.461602   -1.911774   -1.296553
O      2.499943    0.325798   -1.335160
H     -2.719537   -1.485401    0.355574
H     -4.069378   -0.625148   -0.482451
H     -2.753876   -1.374842   -1.475840
H     -3.400590    1.530758    0.955580
H     -1.667861    1.636032    1.333547
H     -2.612269    0.140767    1.721485
H      3.022717    0.313946    1.865370
H      3.638941   -1.104343    0.910091
H      4.088165    0.544686    0.421737
H      0.615175    1.567860   -1.628454
H     -0.511967    2.301457   -0.474029
H      1.835054    2.136302    0.267290
H      0.810628    1.129324    1.403536
H     -2.614800    1.134864   -1.151596
H     -0.752856   -0.220216   -1.782775
H     -0.783609   -1.910161   -0.214834
H      1.581863   -1.877119    0.710410
H      0.267715   -1.170379    1.974242
H      0.716490   -2.560952   -1.421314
H      2.747499    1.263948   -1.399282
