47

C      6.259148   -1.679498    0.076733
C     -5.003846   -2.681212   -0.117285
C     -1.098230    2.424880    1.152142
C      5.061894   -1.111471   -0.658999
C      4.272854   -0.287480    0.313747
C      3.048372    0.335861   -0.301137
C      2.090226   -0.674566   -0.847677
C      0.868338   -0.058187   -1.464210
C      0.082723    0.769835   -0.465263
C     -3.697241   -2.186950    0.483898
C     -1.142701    1.375003   -1.116075
C     -3.276380    0.130697    0.273170
C     -3.902961   -0.869047    1.126659
C     -3.232227    1.615360    0.255716
C     -2.616366   -0.496128   -0.682387
C     -1.907312    2.186393   -0.127978
O     -4.498967   -0.677138    2.190201
O     -3.618930    2.168541    1.471462
O     -2.087597    3.476470   -0.682174
O     -2.759110   -1.879165   -0.527541
O     -1.932470    0.288126   -1.623744
H      7.137775   -0.985740   -0.058013
H      6.047516   -1.804900    1.153969
H      6.543393   -2.615919   -0.425354
H     -5.454154   -3.404132    0.561031
H     -5.669153   -1.800027   -0.217698
H     -4.803613   -3.107895   -1.139722
H     -1.795340    3.021877    1.812831
H     -0.956242    1.462113    1.677727
H     -0.192384    3.003465    0.978870
H      5.464482   -0.465235   -1.476689
H      4.475800   -1.965125   -1.066348
H      4.005035   -0.909428    1.192500
H      4.938264    0.520984    0.679561
H      2.529464    0.888854    0.534198
H      3.349349    1.085908   -1.056974
H      1.813362   -1.376966   -0.039082
H      2.585015   -1.281697   -1.631309
H      0.212969   -0.906288   -1.798675
H      1.142780    0.507768   -2.362700
H      0.740969    1.582328   -0.136886
H     -0.184388    0.105043    0.376257
H     -3.238552   -2.926736    1.148362
H     -0.784311    2.000501   -1.949464
H     -3.980244    1.957755   -0.497293
H     -3.616468    1.514486    2.209669
H     -1.220542    3.728680   -1.093773
