47

C      5.565304    0.479443   -1.607477
C     -5.076281    1.651108    2.273537
C     -1.986804   -0.760038   -1.676938
C      5.730488   -0.062360   -0.206732
C      4.432843   -0.064314    0.557603
C      3.450743   -0.919547   -0.167830
C      2.106350   -0.988584    0.521627
C      1.157520   -1.854190   -0.239383
C     -0.197924   -1.956162    0.406086
C     -5.353857    0.783628    1.051826
C     -0.897901   -0.642283    0.553086
C     -3.242463    0.905261    0.089914
C     -4.599650    1.381912   -0.073708
C     -1.903128    1.361323   -0.371822
C     -3.306078   -0.184861    0.829568
C     -1.152407    0.070848   -0.732705
O     -5.017281    2.126015   -0.965912
O     -1.983544    2.210507   -1.456502
O     -0.005947    0.466961   -1.391658
O     -4.645521   -0.462606    1.171095
O     -2.149309   -0.899210    1.175615
H      6.495043    0.920958   -1.979054
H      4.808523    1.305954   -1.544886
H      5.156148   -0.328419   -2.229447
H     -5.993033    2.150512    2.645176
H     -4.323176    2.419618    2.084237
H     -4.666934    0.982710    3.063443
H     -2.665055   -1.454534   -1.183872
H     -1.272155   -1.344048   -2.306048
H     -2.503587   -0.060474   -2.361229
H      6.501825    0.582464    0.307763
H      6.170673   -1.072440   -0.249644
H      4.658119   -0.484326    1.566603
H      4.095113    0.996227    0.623246
H      3.360633   -0.568258   -1.209447
H      3.862309   -1.949552   -0.212813
H      1.700686    0.029038    0.719656
H      2.316180   -1.411260    1.547915
H      1.585428   -2.899059   -0.214581
H      1.146043   -1.561395   -1.286757
H     -0.055911   -2.399123    1.403840
H     -0.866821   -2.636208   -0.152570
H     -6.413705    0.642255    0.858795
H     -0.357120    0.054363    1.238910
H     -1.368691    1.799823    0.492820
H     -2.091897    3.132079   -1.108631
H     -0.203789    0.510248   -2.364528
