49

C      5.018311   -2.169279    0.888211
C      4.315676   -0.765127   -1.174758
C     -0.958947    3.531427    1.010969
C      1.430706    3.071472    1.083794
C     -2.298519    0.631194   -2.235821
C     -2.696927    0.544769   -3.570786
C     -2.001732   -1.766085    2.010686
C     -2.394593   -3.058946    2.288659
C      2.978814   -0.887027    0.828874
C     -1.486512    0.751988    0.523099
C     -3.221218   -2.755081   -1.118882
C      4.053454   -1.247477    0.190408
C     -2.476978   -0.464612   -1.437565
C     -2.274704   -1.512424    0.683266
C     -2.080546   -0.369315   -0.120853
C     -2.822223   -2.651837    0.196501
C     -3.041049   -1.650063   -1.923326
C     -0.135714    1.217295    0.436310
C     -3.249336   -0.646104   -4.007176
C      2.017799    0.003276    0.192288
C      0.069374    2.464969    1.293071
O     -3.616433   -0.747030   -5.209245
O      2.131385    0.466180   -0.945101
O     -0.035573    2.192327    2.656957
O     -2.874905   -3.548444    1.188560
O     -3.396083   -1.664153   -3.196308
O      0.904021    0.366079    0.883042
H      4.436630   -3.027211    1.259012
H      5.388997   -1.594536    1.759832
H      5.795670   -2.424818    0.155097
H      4.417080    0.334059   -1.257275
H      3.512606   -1.143828   -1.871718
H      5.258800   -1.219447   -1.559622
H     -0.498542    4.502895    1.297148
H     -1.153520    3.642910   -0.086522
H     -1.870917    3.446170    1.608254
H      1.634422    3.001110   -0.025404
H      2.239784    2.487944    1.568170
H      1.486286    4.118043    1.414528
H     -1.864261    1.516517   -1.825893
H     -2.568737    1.394891   -4.226230
H     -1.560494   -1.107021    2.744663
H     -2.344633   -3.621391    3.212593
H      2.813890   -1.262388    1.842399
H     -2.102443    1.598985    0.129795
H     -1.823254    0.766783    1.611876
H     -3.654422   -3.654296   -1.508098
H      0.146818    1.528302   -0.587092
H      0.452688    1.378357    2.929610
