75

C    -10.445261   -1.253415    0.107339
C     -8.472017   -0.926203   -1.870097
C     -2.710114    3.147083    0.384552
C     -5.790858   -1.503472    0.908891
C     -3.670626    0.158810   -1.517621
C     -9.331360   -0.229578    0.304193
C      1.860629    1.525314    0.858218
C      3.015211    1.865593    1.482818
C      0.712937    2.338713    1.030347
C      4.207316    1.069885    1.336535
C     -0.453911    2.191032    0.515119
C      5.279621    1.505108    1.985758
C      9.727351   -1.270791   -2.044326
C      9.347008   -0.090813   -1.595733
C     -7.017648    0.207638   -0.215822
C     -2.247224    0.693271    0.453204
C     -4.765501    0.827001    0.663892
C      6.376553   -2.496075    1.092077
C     -8.094359   -0.771732   -0.401289
C     -1.701025    2.044433   -0.027821
C     -5.920263   -0.129989    0.404528
C     -3.546092    0.269032   -0.030888
C      8.825778   -2.426023   -2.054062
C      7.167233   -1.250213    0.703800
C      8.010754    0.112213   -1.090498
C      6.578074    0.863052    1.977022
C      7.538310   -2.270951   -1.550306
C      7.134634   -1.053942   -0.810013
N      6.859358   -0.123541    1.384723
O      6.590665   -2.736999    2.451694
O      7.583981    1.308793   -0.886098
O      7.589387    1.497045    2.758146
O      5.861082   -0.682162   -1.239174
O      7.700686   -2.107804   -2.992418
H    -11.400013   -0.862052    0.544528
H    -10.590649   -1.452045   -0.964542
H    -10.178596   -2.163445    0.666003
H     -8.934832   -1.897492   -2.088626
H     -7.517855   -0.895314   -2.455640
H     -9.062857   -0.044740   -2.200886
H     -3.219120    2.789221    1.279903
H     -2.137545    4.095582    0.575686
H     -3.426109    3.344864   -0.422218
H     -6.647482   -1.680007    1.616311
H     -5.702187   -2.279798    0.129606
H     -4.889146   -1.588487    1.553046
H     -3.802288    1.128927   -2.038643
H     -4.609545   -0.415152   -1.718996
H     -2.854701   -0.462119   -1.902680
H     -9.096890   -0.159692    1.375725
H     -9.637498    0.757858   -0.112414
H      1.961697    0.619534    0.261407
H      2.974252    2.759658    2.086091
H      0.785652    3.131045    1.793980
H      4.286963    0.170997    0.762964
H     -0.490768    3.597776    0.496882
H      5.181573    2.426595    2.582050
H     10.753228   -1.332189   -2.404487
H     10.022227    0.771365   -1.590834
H     -7.135267    1.210475   -0.592411
H     -2.180860    0.773099    1.578642
H     -1.467220   -0.096779    0.224551
H     -5.025822    1.798517    0.190306
H     -4.627719    0.953748    1.736919
H      5.317414   -2.435669    0.859285
H      6.861716   -3.351167    0.576242
H     -7.890887   -1.746535    0.065721
H     -1.684264    2.116452   -1.137197
H     -3.550179   -0.901854    0.254449
H      9.253159   -3.435353   -2.249514
H      8.242975   -1.550472    0.905446
H      6.874136   -3.155278   -1.393844
H      7.001408   -1.947618    2.899788
H      8.583219    1.312233    2.527778
H      5.860369   -0.205000   -2.089655
