57

C      2.254149   -1.230496    0.021315
C     -0.798413   -0.024102    1.390509
C     -5.034722   -0.824749    0.238287
C     -3.417232    2.036764    0.972899
C      0.477119    1.628252   -0.919455
C     -1.961510    1.966160    0.656424
C     -3.955069    0.841680    1.718816
C      1.838868    1.108047   -0.724343
C      3.419426   -0.334361   -1.938434
C      4.562796    0.117769   -1.059971
C     -1.074205   -1.740444   -1.189143
C      1.065013   -0.870080   -2.064719
C     -0.264599   -0.704467   -1.410751
C     -0.633651    0.671246   -1.025442
C     -2.387972   -1.614916   -0.549819
C     -2.732169   -0.188600   -0.209649
C     -3.181337   -1.536532    1.615909
C      2.095729   -0.289986   -1.160804
C     -1.506127    0.587245    0.223524
C     -3.726474   -0.377282    0.904860
O     -3.209837   -1.829000    2.830174
O      5.955743   -0.989972    2.476933
O      7.313110   -0.425579    0.370726
O      5.881331    1.315676    1.344437
O      4.728222   -0.670682    0.067957
O     -2.568876   -2.334862    0.628059
S      5.989193   -0.158240    1.020692
H      1.268828   -1.714318    0.278110
H      2.914332   -2.095793   -0.213942
H      2.565093   -0.696994    0.941100
H     -1.311504    0.294698    2.333939
H     -0.754210   -1.110101    1.411329
H      0.229133    0.353285    1.478600
H     -5.214170   -0.167419   -0.661617
H     -4.997121   -1.868668   -0.078744
H     -5.834543   -0.653253    0.994117
H     -3.977759    2.084739    0.005548
H     -3.630168    2.940179    1.564975
H      0.255772    2.329700   -0.059506
H      0.467401    2.323886   -1.811595
H     -1.367523    2.329231    1.515421
H     -1.781562    2.661238   -0.213725
H     -5.069021    1.020518    1.796946
H     -3.614257    0.784341    2.767971
H      2.569502    1.799479   -1.242057
H      2.168118    1.182566    0.355092
H      3.596340   -1.301306   -2.406677
H      3.305763    0.457752   -2.725184
H      4.478130    1.180188   -0.784128
H      5.490117    0.005551   -1.676066
H     -0.700223   -2.704435   -1.514905
H      1.039980   -0.319354   -3.035325
H      1.263817   -1.949744   -2.186544
H     -1.355689    1.016846   -1.827211
H     -3.182825   -1.958816   -1.271377
H     -3.197762    0.337938   -1.042988
H      5.247509   -0.690422    3.079455
