49

C     -6.543879    1.411277   -0.630403
C      6.244369    0.113551    0.322814
C     -3.734286   -1.682971    0.016039
C     -4.679846   -0.681026   -0.200169
C     -1.438684   -2.436012    0.479659
C     -0.460553   -1.838446    1.502996
C     -0.012118    1.084238   -0.702712
C      2.173094    2.373887   -0.750050
C      3.496821    0.091419   -0.021723
C      2.045123   -2.295705    0.317385
C     -2.421565   -1.348665    0.248097
C      1.464513    1.226730   -0.558951
C      2.138985    0.073072   -0.190522
C     -0.580441    0.350232    0.522972
C      1.254184   -1.103456   -0.015662
C      3.540992    2.435145   -0.590932
C     -4.260956    0.617823   -0.173117
C      4.204409    1.283981   -0.224040
C     -1.974955   -0.045051    0.279929
C     -2.936304    0.924663    0.062220
N      0.261011   -0.724647    0.955751
O      2.949964   -2.566623   -0.710147
O      4.233675    3.614763   -0.792167
O     -2.560067    2.246666    0.080749
O     -5.170660    1.638080   -0.383222
O      5.566090    1.273934   -0.048047
H     -7.156088    2.306118   -0.537825
H     -6.975973    0.649971    0.055277
H     -6.635336    1.038134   -1.671389
H      7.351471    0.221138    0.173336
H      5.952059   -0.739981   -0.343526
H      6.010461   -0.224406    1.365798
H     -4.062019   -2.712651   -0.004537
H     -5.721242   -0.893440   -0.386531
H     -1.897595   -3.326890    0.945052
H     -0.948750   -2.653445   -0.473839
H      0.193782   -2.580985    1.941162
H     -1.109667   -1.439923    2.317220
H     -0.295547    0.571323   -1.640427
H     -0.400077    2.118978   -0.769027
H      1.623266    3.279433   -1.042057
H      4.005335   -0.787935    0.264285
H      2.595516   -2.221756    1.280675
H      1.424705   -3.232221    0.407348
H     -0.575671    1.111985    1.331579
H      0.777632   -1.276183   -1.023116
H      2.505478   -2.687676   -1.564448
H      3.788606    4.478323   -1.060680
H     -3.249262    2.965226   -0.076091
