86

C      0.450375   -3.517769    2.443903
C      5.372156    1.046438   -1.375994
C     -0.804887    2.650952    0.485289
C      7.038062    2.763547    0.363253
C     -4.166379    5.725942    0.924755
C     -3.402665   -5.557633   -1.326640
C     -0.598110    2.889817   -3.307305
C      2.132241   -2.577895   -0.998586
C      0.087531   -2.412407   -2.239398
C     -3.178672   -0.921002   -0.666239
C     -3.335247    1.184313    2.203999
C     -3.618762   -0.107996    1.521661
C      1.604260   -1.346718    1.642608
C     -2.079966   -1.889175    1.403604
C      0.645141   -2.495218    1.427582
C      5.107389    1.201757    0.105259
C     -1.662213    1.688931    0.649502
C      5.575123    2.559196    0.583875
C     -3.988706    4.292854    0.647448
C     -2.599233   -4.915892   -0.229819
C     -0.863711    1.547451   -2.729414
C     -3.047552    2.131484    1.022791
C      1.599784   -0.333368    0.557210
C     -1.377114   -3.006532    0.708585
C     -0.047553   -2.548771    0.270670
C     -1.308647    0.264729    0.504526
C      0.809236   -0.566839   -0.662286
C     -0.544433    0.063629   -0.757631
C      3.682714    1.012835    0.455798
C      0.699972   -2.105289   -0.936023
C     -2.494994   -0.674928    0.663510
O      4.835058    3.589396   -0.014881
O     -4.667694    3.805112   -0.318646
O     -2.329015   -5.574020    0.822708
O     -1.495270    0.681961   -3.361449
O      3.039073    1.966016    1.013449
O     -3.138830    3.463105    1.367469
O     -2.132764   -3.632806   -0.305159
O     -0.404695    1.265423   -1.484268
O      2.989251   -0.137685    0.219503
H      0.471614   -4.585886    2.065679
H     -0.308992   -3.364016    3.204805
H      1.414502   -3.522633    3.054735
H      5.779545    0.020785   -1.560553
H      4.416047    1.184197   -1.931114
H      6.080206    1.816996   -1.741710
H     -1.059261    3.722264    0.606117
H      0.218695    2.478208    0.231541
H      7.469832    3.457719    1.114770
H      7.181530    3.164623   -0.666916
H      7.549396    1.781510    0.427531
H     -3.668370    6.294225    0.108561
H     -3.795035    6.035146    1.908857
H     -5.263566    5.944580    0.799592
H     -2.713721   -6.210288   -1.886198
H     -4.129966   -6.228318   -0.792907
H     -3.931228   -4.817270   -1.929230
H      0.481350    3.108060   -3.201737
H     -1.128806    3.624244   -2.635227
H     -0.976144    2.989018   -4.332138
H      2.497094   -3.050419   -0.068934
H      2.770293   -1.773956   -1.397253
H      2.182908   -3.389657   -1.776874
H      0.702600   -3.173046   -2.791715
H      0.059635   -1.478382   -2.870340
H     -0.936370   -2.818320   -2.127117
H     -4.276583   -1.024249   -0.508580
H     -3.085554    0.050505   -1.232883
H     -2.780394   -1.685803   -1.296334
H     -2.458104    1.210225    2.847778
H     -4.272323    1.492805    2.712507
H     -3.960620   -0.825765    2.312749
H     -4.563538    0.070040    0.932475
H      2.583235   -1.783016    1.901534
H      1.258059   -0.902077    2.626878
H     -1.376029   -1.520932    2.209193
H     -2.918259   -2.357419    1.999665
H      5.696921    0.448191    0.680088
H      5.365746    2.613615    1.666058
H     -3.699000    1.879313    0.169409
H      1.313009    0.634569    1.014894
H     -1.296271   -3.812346    1.499856
H     -0.605944    0.065095    1.361300
H      1.389640   -0.232119   -1.538694
H     -1.115592   -0.601335   -1.484445
H      5.057555    3.598375   -0.980890
