49

C      5.374453    2.390903   -0.739757
C     -4.897291    2.164894   -1.510529
C      3.599766   -1.415548   -1.202226
C      4.195205   -0.169222   -1.060404
C      1.765862   -3.035348   -0.680434
C      0.270253   -2.896345   -0.611504
C     -0.030201   -0.298530    1.899088
C     -1.344630    1.826836    1.710245
C     -2.848475    0.753727   -0.268516
C     -2.399398   -2.407391    0.592584
C      2.436152   -1.709650   -0.547550
C     -1.088687    0.545371    1.306510
C     -1.847815   -0.001875    0.304692
C      0.618522   -1.159005    0.907035
C     -1.567583   -1.401263   -0.140823
C     -2.354777    2.591144    1.132282
C      3.623709    0.794534   -0.256911
C     -3.110622    2.043723    0.133715
C      1.874200   -0.703942    0.268212
C      2.433069    0.519643    0.424128
N     -0.188680   -1.603736   -0.175658
O     -3.762102   -2.035646    0.520851
O     -2.582917    3.884181    1.568420
O      1.842652    1.477610    1.235644
O      4.161053    2.053790   -0.070485
O     -4.142233    2.789550   -0.473955
H      6.101634    1.561855   -0.538501
H      5.745134    3.369027   -0.354539
H      5.134153    2.463205   -1.825340
H     -4.264843    1.888683   -2.376396
H     -5.280179    1.203582   -1.082309
H     -5.776112    2.748418   -1.789882
H      4.088443   -2.128133   -1.840975
H      5.123557    0.063050   -1.583539
H      2.037069   -3.413275   -1.702759
H      2.091973   -3.737734    0.106527
H     -0.204733   -3.194715   -1.575739
H     -0.080356   -3.616673    0.184857
H      0.622662    0.212272    2.621257
H     -0.633591   -0.990245    2.596168
H     -0.761537    2.281229    2.496807
H     -3.448045    0.308975   -1.066082
H     -2.176692   -2.544209    1.646905
H     -2.357042   -3.410096    0.113370
H      0.930319   -2.109321    1.455785
H     -1.937871   -1.426738   -1.211943
H     -3.983963   -1.373171    1.211323
H     -3.284908    4.475729    1.197328
H      2.285442    2.369878    1.324414
