80

C      2.929737    2.796040   -1.337710
C     -7.170232   -0.204480    0.393123
C     -2.071877   -2.804199    0.307196
C     -1.347115   -0.534778   -0.702821
C     -4.938037   -1.510793   -0.670731
C      8.652001    1.455487    1.375869
C      1.080248    0.479042    1.152314
C     -0.149722    0.564064    1.979641
C     -4.587032    1.926709   -1.415922
C      1.336818    1.735184    0.346054
C     -5.905098    1.280404   -1.059098
C     -3.588026   -1.834904    1.964489
C      3.357438    0.558289   -0.474436
C     -1.455425    0.703657    1.403736
C     -3.417098    0.974278   -1.255019
C     -4.689828   -0.872691    1.756091
C      4.590249    0.472873   -1.314438
C      7.864676   -2.878502    0.914528
C      6.558190    1.277656   -0.014658
C      2.573658    1.625927   -0.470929
C     -5.874197    0.528355    0.220447
C     -2.347011   -1.621774    1.188406
C      6.347400   -0.865254   -0.124334
C      6.010906   -2.181978   -0.328990
C      7.488211   -0.583424    0.630610
C     -2.147254   -0.277290    0.546126
C     -4.678704   -0.440274    0.302781
C     -3.459837    0.400113    0.120686
N      4.837190   -2.449285   -1.104971
N      6.767104   -3.140884    0.188095
N      8.213950   -1.598231    1.128252
N      7.578288    0.758770    0.671425
N      5.781526    0.281906   -0.517224
O     -3.724263    1.519886    0.961384
H      2.275451    3.641678   -1.058673
H      3.964330    3.129292   -1.096555
H      2.797812    2.595441   -2.402416
H     -7.794880   -0.140275   -0.545708
H     -7.803485    0.325237    1.163574
H     -7.071336   -1.270666    0.610596
H     -1.019373   -3.199034    0.388989
H     -2.280886   -2.703864   -0.745659
H     -2.687646   -3.680180    0.679198
H     -0.672954   -1.430565   -0.545863
H     -1.988630   -0.883669   -1.551181
H     -0.828060    0.339456   -1.114537
H     -5.982198   -1.494016   -1.099276
H     -4.917170   -2.497757   -0.119297
H     -4.265872   -1.616083   -1.518771
H      8.921400    2.385201    0.800488
H      8.302485    1.715179    2.403410
H      9.544582    0.816343    1.441010
H      1.980520    0.389445    1.832094
H      1.147128   -0.365371    0.477287
H     -0.029432   -0.188917    2.800060
H      0.009956    1.525618    2.584493
H     -4.443783    2.912607   -0.982610
H     -4.664872    2.118267   -2.531671
H      0.483447    2.023608   -0.281878
H      1.525584    2.576768    1.102837
H     -6.284385    0.662454   -1.915158
H     -6.640947    2.103977   -0.949696
H     -3.427635   -1.894327    3.085524
H     -4.011216   -2.861728    1.738346
H      3.097682   -0.276639    0.156219
H     -1.456302    1.679815    0.812823
H     -2.184031    0.951502    2.239399
H     -3.579236    0.221375   -2.059200
H     -2.499799    1.570563   -1.416361
H     -4.567899    0.052947    2.358435
H     -5.644396   -1.323638    2.066339
H      4.693574    1.420173   -1.921081
H      4.476436   -0.321549   -2.079561
H      8.479845   -3.688790    1.335575
H      6.384962    2.327073   -0.144822
H     -5.738916    1.223387    1.062704
H     -1.506407   -1.675844    1.957564
H      3.917578   -2.393718   -0.625066
H      4.908758   -2.687271   -2.101824
H     -3.336621    2.346596    0.592944
