38

C      3.177931   -1.823904    0.062579
C      3.836211   -0.487976   -0.104492
C     -4.291934   -1.119369    0.946783
C     -3.897997    0.180620    0.724435
C     -3.611814   -2.152372    0.318322
C     -2.829950    0.480111   -0.119076
C     -2.546404   -1.833649   -0.521436
C      2.219007    2.104045    1.269140
C      1.189809    2.697251    1.810993
C     -2.161071   -0.540090   -0.737120
C      1.989433    0.804952    0.557059
C     -0.184735    2.155752    1.751418
C     -1.026915   -0.242620   -1.621277
C      0.320890   -0.294218   -0.966308
C      0.617698    0.829883   -0.049163
O     -1.163070    2.735558    2.285853
O     -1.239893    0.885456   -2.409099
O      1.274563   -0.277596   -2.007390
O      2.945250    0.497674   -0.331834
O     -0.285690    0.938168    1.046275
H      2.793618   -2.240089   -0.907233
H      2.360640   -1.768907    0.780726
H      3.928660   -2.551068    0.484046
H      4.586983   -0.618179   -0.924346
H      4.460991   -0.345081    0.811824
H     -5.122089   -1.354338    1.602237
H     -4.459066    0.955915    1.237149
H     -3.911924   -3.178070    0.484926
H     -2.611907    1.528780   -0.225346
H     -2.041557   -2.689826   -0.994607
H      3.211073    2.489925    1.304113
H      1.369452    3.639592    2.330592
H      2.037632    0.059569    1.402964
H     -1.008984   -1.094353   -2.377701
H      0.396699   -1.265443   -0.462262
H      0.552585    1.802800   -0.630270
H     -1.830242    0.679486   -3.181055
H      0.956119    0.411609   -2.641420
