39

C      4.014127    1.348674    0.460576
C     -1.326640    1.931184    0.686789
C     -1.511624    1.020169   -1.543131
C     -0.757981   -0.783545    1.765645
C     -2.722117   -1.373380   -0.075171
C      2.875428   -0.031388   -1.280639
C     -2.866197    0.082664    0.204266
C     -1.257681   -1.618155   -0.431988
C      1.354869   -0.031056   -1.401591
C      1.708372   -1.424265    0.695055
C      3.059687    0.550084    0.054424
C      1.930417    0.048075    0.876216
C     -1.489016    0.649862   -0.082655
C     -0.589328   -0.442781    0.305127
C      0.852037   -0.348715   -0.028746
H      4.803968    1.661159   -0.227903
H      4.093867    1.745828    1.466378
H     -2.333783    2.438359    0.671375
H     -1.043101    1.809322    1.726550
H     -0.664642    2.598565    0.096190
H     -1.027974    2.004376   -1.714030
H     -2.575342    1.197677   -1.899444
H     -1.107714    0.290348   -2.230067
H      0.015537   -0.319790    2.406328
H     -1.765545   -0.549748    2.160907
H     -0.688750   -1.898417    1.851301
H     -3.028028   -1.987823    0.803894
H     -3.341876   -1.628948   -0.962957
H      3.315119   -1.023421   -1.426300
H      3.317336    0.675851   -2.028844
H     -3.614841    0.563122   -0.503804
H     -3.258263    0.346829    1.202255
H     -0.936059   -2.569414    0.036319
H     -1.063458   -1.609925   -1.498730
H      1.111818    0.989081   -1.758902
H      1.025132   -0.793708   -2.117153
H      1.304525   -1.942384    1.555920
H      2.377175   -2.035485    0.069471
H      1.810546    0.461118    1.875950
