57

C     -2.911940   -0.818672    1.631173
C     -4.312373   -0.958354   -1.765768
C      3.715937    4.225893    0.852462
C     -0.476200   -4.944412   -0.452233
C      2.496272    4.840363    1.036742
C     -1.763386   -4.470881   -0.272674
C      3.802781    2.845281    0.626508
C      0.582524   -4.060097   -0.353957
C      1.340041    4.069120    0.995910
C     -1.991839   -3.126045    0.002991
C     -1.462093    2.340012   -0.611862
C      3.602053   -2.539890   -0.285690
C      2.650943    2.122241    0.593028
C      0.318306   -2.740983   -0.080606
C      2.551749   -1.538197   -0.028608
C      1.411640    2.718991    0.775875
C     -0.951057   -2.237115    0.104781
C     -2.913790    1.860484   -0.694899
C     -0.989231    2.070411    0.801695
C      1.188648   -1.698550    0.044493
C      2.386622    0.793594    0.400242
C      3.170246   -0.320257    0.143601
C      1.009515    0.634040    0.474270
C      0.438326   -0.607388    0.298642
C     -2.829557    0.346236   -0.536671
C      4.593506   -0.520552    0.003076
C     -2.012905   -0.042377    0.655743
N      4.816108   -1.788050   -0.240225
N      0.439361    1.830579    0.703115
N     -0.881507   -0.902603    0.347138
O     -3.354388    2.188961   -1.974957
O      5.637238    0.371743    0.086181
O     -4.068642   -0.226820   -0.635162
O     -1.588364    1.047698    1.429152
H     -3.899323   -1.037597    1.240859
H     -3.133113   -0.176779    2.555145
H     -2.448359   -1.704850    2.049438
H     -5.366631   -1.352205   -1.666160
H     -4.385109   -0.307381   -2.688109
H     -3.672816   -1.820126   -1.948798
H      4.602262    4.844405    0.888095
H     -0.277855   -5.996182   -0.668912
H      2.416430    5.900192    1.211139
H     -2.617567   -5.155691   -0.346692
H      4.787017    2.485285    0.499663
H      1.598730   -4.436819   -0.496720
H      0.391813    4.559033    1.141117
H     -2.992301   -2.785283    0.114979
H     -0.895735    1.739721   -1.341440
H     -1.459259    3.413610   -0.813440
H      3.587467   -3.250470    0.587114
H      3.464863   -3.078453   -1.245450
H     -3.466387    2.358057    0.095760
H     -1.112567    3.027141    1.387438
H     -2.258284    0.026932   -1.460339
H     -2.975955    1.633636   -2.671721
H      6.468136    0.349423   -0.496477
