57

C     -2.708793    0.858234    2.028661
C     -5.184318   -0.446243    0.136554
C      3.781998   -4.123877    0.239582
C     -0.585807    5.080190   -0.474189
C      2.626769   -4.742324    0.637063
C     -1.800937    4.568732   -0.063696
C      3.812927   -2.745468   -0.022177
C      0.457783    4.191871   -0.552905
C      1.487507   -3.981694    0.776320
C     -1.992600    3.246492    0.257344
C     -1.499190   -2.403062   -0.360836
C      3.483855    2.646574   -0.994390
C      2.678734   -2.009219    0.120330
C      0.274959    2.864741   -0.232998
C      2.466020    1.667951   -0.544232
C      1.512052   -2.621330    0.519438
C     -0.957411    2.340805    0.185085
C     -2.222744   -1.313602   -1.072823
C     -0.851078   -1.962944    0.926893
C      1.131914    1.790254   -0.235890
C      2.381407   -0.689659   -0.050002
C      3.104784    0.436114   -0.455605
C      1.031861   -0.508723    0.249428
C      0.426732    0.717756    0.157486
C     -2.865946   -0.314229   -0.117613
C      4.489217    0.624136   -0.837406
C     -1.917616    0.157124    0.929831
N      4.668183    1.876977   -1.133792
N      0.542170   -1.716915    0.590086
N     -0.854927    1.026982    0.424820
O     -1.391809   -0.658286   -1.981327
O      5.506368   -0.289662   -0.906297
O     -3.956821   -0.886705    0.526546
O     -1.370245   -0.943244    1.569257
H     -2.787599    0.208906    2.963713
H     -3.739880    1.080357    1.786191
H     -2.125780    1.738586    2.437832
H     -5.405998    0.613699    0.243284
H     -5.483983   -0.839807   -0.883633
H     -5.929106   -0.966070    0.814278
H      4.669660   -4.731078    0.133760
H     -0.460133    6.136786   -0.723674
H      2.600974   -5.793332    0.837201
H     -2.626331    5.259666    0.000795
H      4.757546   -2.375844   -0.321966
H      1.417544    4.563494   -0.870722
H      0.546987   -4.431916    1.090100
H     -2.943458    2.890636    0.558026
H     -2.214962   -3.217000   -0.092988
H     -0.776542   -2.865381   -1.066223
H      3.202165    3.150155   -1.942784
H      3.579937    3.399706   -0.171384
H     -3.044733   -1.757773   -1.669086
H     -0.810618   -2.848926    1.642609
H     -3.266295    0.475088   -0.797226
H     -1.226452   -1.262842   -2.753162
H      6.362064   -0.164858   -1.453490
