42

C     -3.244835    2.070374    1.051082
C      3.367658   -1.031191    0.087182
C     -3.092515    1.684136   -0.381409
C     -0.951982   -2.514016    0.727494
C     -0.296022   -2.696461   -0.383564
C      3.882295    1.641169    0.094322
C     -1.772863   -1.409892    1.042041
C     -0.337464   -1.754258   -1.461789
C      3.086087    1.181718   -0.828665
C      4.548685    2.103960    1.133696
C      1.303873    0.314031    0.538018
C     -2.769624   -0.760303    0.187727
C     -2.190026    0.440983   -0.548830
C      0.347698   -0.460551   -1.433483
C      0.142133    0.553449   -0.436635
C      2.362474   -0.055726   -0.482376
Br     3.588053    3.202163    2.307026
Br    -3.996298   -1.824663   -0.773678
O     -1.040688    0.756488    0.153441
O      1.740670   -0.606992   -1.552377
H     -4.164499    1.623570    1.485219
H     -2.323395    1.779738    1.597803
H     -3.299117    3.177062    1.104872
H      2.906565   -1.577498    0.935912
H      4.282500   -0.527318    0.457137
H      3.639669   -1.785333   -0.705092
H     -4.082789    1.370173   -0.804319
H     -2.723505    2.519454   -0.967087
H     -0.810312   -3.354935    1.475229
H      0.326848   -3.640466   -0.484655
H     -1.231348   -0.537871    1.561489
H     -2.380542   -1.741688    1.979390
H      0.284770   -2.278547   -2.310294
H     -1.300060   -1.775510   -2.073409
H      3.054277    1.753787   -1.709902
H      5.548886    1.781920    1.158399
H      1.117612   -0.549399    1.196586
H      1.532155    1.225478    1.095714
H     -3.472222   -0.211884    0.929775
H     -2.101165    0.340842   -1.617349
H      0.084062    0.014973   -2.448067
H      0.434304    1.559033   -0.896575
