37

C     -3.911243   -0.389179   -1.500242
C     -4.645889    0.194930    0.839005
C      4.664454    0.547972   -0.689982
C      5.160413   -0.718016   -0.471309
C      3.400871    0.887380   -0.255178
C      4.346828   -1.623825    0.195435
C     -2.234255   -0.217859    0.342428
C      0.434241    1.234883    0.891259
C      1.104975   -1.185442    1.475337
C     -3.562129    0.277534   -0.192740
C      1.337941    0.058904    0.938608
C      2.621983   -0.026754    0.398328
C      3.073888   -1.298318    0.639346
C     -1.129492    0.066811   -0.604982
C     -0.292826    1.291057   -0.432072
N      2.147339   -2.000936    1.295558
O     -0.886892   -0.679569   -1.527822
O      0.632372    1.369000   -1.487158
H     -4.174051   -1.463932   -1.373112
H     -3.082602   -0.267623   -2.194847
H     -4.776446    0.189315   -1.911179
H     -5.619186    0.001432    0.315991
H     -4.783488    1.153009    1.387046
H     -4.490388   -0.590169    1.592833
H      5.263510    1.275445   -1.202396
H      6.155106   -1.017482   -0.800757
H      3.026339    1.878225   -0.417396
H      4.699260   -2.623556    0.385795
H     -2.006583    0.257165    1.315647
H     -2.282443   -1.314570    0.535083
H     -0.269550    1.189281    1.746098
H      1.071166    2.144467    1.028736
H      0.186364   -1.495055    1.995138
H     -3.432762    1.371281   -0.433602
H     -0.895757    2.219813   -0.460071
H      2.262400   -2.999445    1.591501
H      0.886531    2.303824   -1.633543
