37

C     -4.982655   -0.400378    0.727686
C     -3.857986   -1.263621   -1.303156
C      3.382180   -0.892901    2.271915
C      4.657556   -0.438189    2.030343
C      2.427527   -0.711331    1.294149
C      4.982508    0.183112    0.846572
C     -2.632306    0.282689    0.231198
C      0.592430   -0.052211   -1.244138
C      2.880494    0.841929   -1.902789
C     -3.975111   -0.107621   -0.354598
C      2.011418    0.213075   -1.019863
C      2.728547   -0.098944    0.116733
C      4.015981    0.358353   -0.124153
C     -1.693078    0.555644   -0.871004
C     -0.306439    0.961011   -0.551419
N      4.085469    0.919864   -1.342585
O     -2.021399    0.458586   -2.022202
O     -0.080132    1.032402    0.801915
H     -5.671082   -1.236562    0.435555
H     -5.622527    0.476224    0.894502
H     -4.508591   -0.662007    1.684758
H     -3.981912   -0.898811   -2.358069
H     -2.925803   -1.838201   -1.171494
H     -4.711836   -1.978286   -1.145196
H      3.171839   -1.376007    3.218186
H      5.446020   -0.558843    2.772457
H      1.440424   -1.086658    1.516331
H      5.995298    0.530720    0.685272
H     -2.776320    1.249030    0.779146
H     -2.268962   -0.482441    0.939797
H      0.324985   -0.047531   -2.323879
H      0.310866   -1.045977   -0.804013
H      2.563531    1.193145   -2.885480
H     -4.325806    0.801913   -0.918687
H     -0.081231    1.959200   -1.020076
H      4.917426    1.354057   -1.809282
H      0.488679    1.805565    0.991624
