50

C     -4.495142   -0.129649   -0.515637
C     -2.407431    3.911962   -1.466645
C      0.760065   -1.955558   -3.138718
C     -3.531104   -1.000254    3.834341
C      1.399028    0.570653    0.342197
C      5.439370   -0.112705   -0.752131
C      2.324912    0.540860    1.299651
C      4.049069    0.227498   -0.459575
C     -0.065485    0.692828    0.641611
C      6.217423   -0.644633    0.155324
C     -3.016697    0.259083   -0.679580
C     -2.538240    2.436129   -1.573890
C      0.380139   -1.780365   -1.710251
C     -3.178972   -1.335971    2.413047
C      3.782232    0.419871    1.014367
C     -0.737022   -0.513528    0.087169
C      5.703314   -0.907982    1.484169
C     -2.222375   -0.568062    0.293690
O     -2.286810    1.922181   -2.705964
O      0.743392   -2.645886   -0.845051
O     -3.392865   -2.447405    1.912575
O      6.482773   -1.427590    2.351350
O     -2.914633    1.636454   -0.505868
O     -0.359653   -0.714093   -1.246313
O     -2.591547   -0.357845    1.636882
O      4.393993   -0.595112    1.783778
H     -4.583094   -1.199134   -0.799639
H     -4.753742    0.062424    0.545222
H     -5.119112    0.450065   -1.208671
H     -2.669481    4.219176   -0.430458
H     -3.090428    4.347137   -2.227122
H     -1.387134    4.257110   -1.732595
H     -0.077913   -2.549205   -3.602614
H      1.647980   -2.620928   -3.177799
H      0.937085   -1.011692   -3.661731
H     -3.384650   -1.928879    4.418103
H     -4.610419   -0.757070    3.879264
H     -2.873626   -0.218926    4.224625
H      1.723454    0.503736   -0.689636
H      5.833239    0.085844   -1.759289
H      1.953908    0.610494    2.315608
H      3.415398   -0.627467   -0.834542
H      3.764646    1.095032   -1.054599
H     -0.223230    0.706747    1.739900
H     -0.381824    1.652482    0.185814
H      7.271782   -0.892528   -0.098238
H     -2.764041   -0.013535   -1.700649
H      4.249296    1.381682    1.309259
H     -0.307018   -1.395246    0.651925
H     -2.508808   -1.638201    0.057335
