31

C     -3.701532   -1.557698    0.796434
C      4.311656    0.351786   -0.531469
C      4.390393   -0.985950   -0.188333
C      3.077453    0.973335   -0.548717
C      3.224448   -1.654154    0.126277
C     -0.100593    1.777949   -0.385866
C     -2.204909   -1.665763    0.770455
C      1.933405    0.274434   -0.228509
C      0.597779    0.610883   -0.159711
C      1.989435   -1.056924    0.115702
C     -1.483094    1.870183   -0.248317
C     -1.526099   -0.426146    0.362635
C     -0.151572   -0.483362    0.216816
C     -2.174981    3.117943   -0.497590
N      0.754301   -1.486420    0.374368
N     -2.125924    0.746873    0.123221
O     -1.811961   -2.686302   -0.088497
O     -1.487741    4.251284   -0.881444
O     -3.413496    3.182709   -0.366838
H     -4.128523   -1.727288   -0.230170
H     -4.073719   -2.385420    1.445353
H     -4.041425   -0.612002    1.229572
H      5.228616    0.863762   -0.775139
H      5.340764   -1.499852   -0.165606
H      3.009192    2.029736   -0.818802
H      3.257310   -2.715015    0.402511
H      0.444235    2.655654   -0.682000
H     -1.873473   -1.962796    1.787065
H      0.524440   -2.463777    0.658958
H     -2.032698   -2.524565   -1.030893
H     -1.751689    5.186904   -0.581466
