34

C      4.718595    1.189530   -0.047273
C      4.158162    0.530603    1.020796
C      4.048635    1.149909   -1.248481
C      2.962574   -0.159071    0.927484
C      2.859990    0.481385   -1.398049
C     -3.716447   -0.089145    0.642244
C     -3.805073    0.504055   -0.751132
C      2.326321   -0.171962   -0.295229
C     -2.303497   -0.013567    1.134147
C     -2.843211   -0.239958   -1.598821
C      1.033855   -0.900345   -0.453024
C     -0.019286   -0.087085    0.274225
C     -1.361738   -0.796118    0.279785
O     -2.288770   -0.546027    2.438084
O     -3.006005   -0.133880   -2.855908
O      1.180290   -2.127985    0.170103
O     -0.178822    1.154122   -0.342074
O     -1.845470   -0.991240   -1.032877
H      5.658922    1.735490    0.014424
H      4.659082    0.544450    1.971194
H      4.447884    1.650434   -2.112421
H      2.530060   -0.675533    1.778055
H      2.350978    0.459124   -2.336661
H     -4.387522    0.436240    1.346950
H     -3.997717   -1.163372    0.559140
H     -3.451922    1.563429   -0.661024
H     -4.837580    0.452467   -1.123535
H     -1.967390    1.041145    1.213827
H      0.787874   -1.035378   -1.524004
H      0.302400    0.071046    1.303938
H     -1.183920   -1.796460    0.762295
H     -3.073557   -1.128624    2.597865
H      1.125097   -2.044250    1.154199
H     -0.882793    1.136574   -1.015487
