50

C     -1.180201   -0.362222   -2.648482
C     -4.018084    3.136825   -1.438125
C     -2.691577   -4.758903   -0.494560
C     -2.358036    1.211203    3.092209
C      1.754383   -0.804581    0.375291
C      5.531564    1.919669    1.207407
C      2.199471    0.176350    1.111507
C      4.286415    1.251121    1.720139
C      0.677716   -1.731114    0.812009
C      5.870240    1.837083   -0.072590
C     -1.999979   -0.124298   -1.388359
C     -3.690664    1.672153   -1.444005
C     -1.689291   -3.709116   -0.803867
C     -1.528259    1.023588    1.877600
C      3.284445    1.063509    0.600076
C     -0.513754   -1.699682   -0.104949
C      5.043093    1.095257   -1.016061
C     -1.132548   -0.321572   -0.169588
O     -4.596954    0.805194   -1.501132
O     -1.037928   -3.660688   -1.872366
O     -0.562397    1.777656    1.603399
O      5.367846    1.016247   -2.242678
O     -2.380402    1.242619   -1.386516
O     -1.433446   -2.710822    0.116760
O     -1.813976    0.002015    1.022946
O      3.896502    0.481520   -0.535707
H     -1.441000   -1.285928   -3.171060
H     -1.357269    0.461432   -3.384011
H     -0.089716   -0.341997   -2.460154
H     -3.171058    3.643257   -1.977955
H     -3.945932    3.506273   -0.384994
H     -4.990351    3.353148   -1.880810
H     -3.694841   -4.419430   -0.871427
H     -2.462334   -5.688735   -1.054214
H     -2.741456   -4.981806    0.589222
H     -2.865728    0.289957    3.396944
H     -3.092512    2.024436    2.904114
H     -1.748422    1.546559    3.965105
H      2.213201   -0.937934   -0.620684
H      6.121475    2.461595    1.935828
H      1.772648    0.336767    2.093804
H      3.820527    1.835749    2.519466
H      4.574202    0.257587    2.094135
H      0.329376   -1.362473    1.816622
H      1.110863   -2.717786    0.948295
H      6.775095    2.337094   -0.384040
H     -2.887406   -0.745222   -1.440934
H      2.872743    2.070231    0.355013
H     -0.081876   -1.880058   -1.138436
H     -0.304412    0.408271   -0.270183
