84

C     -1.065889   -5.674218   -0.019523
C     -0.826689   -2.899422   -1.425851
C     -5.344918    1.660587    0.483153
C      2.064976    2.759368    2.263892
C      5.867111    2.196165   -1.183354
C      7.778085    0.139987    0.944998
C     -4.637299   -2.435967   -1.056143
C     -4.506666   -3.564936   -0.366041
C     -4.778078   -1.233424   -1.790442
C     -0.724943    3.862727    0.817439
C     -1.996169    4.187193    0.020785
C     -3.308395   -4.485633   -0.309153
C     -5.467573   -0.062375   -1.184710
C     -0.252839    2.731703    1.194473
C     -3.257658    4.094306    0.263219
C     -0.136154   -1.201253    0.342611
C      0.201601   -0.348103    1.529154
C     -1.263514   -3.443629    0.874725
C      3.897299   -1.219702    0.004917
C     -4.850605    2.300930   -1.881593
C     -2.077716   -4.495383    0.095950
C     -0.657894   -2.350731    0.002696
C     -4.707796    1.162972   -0.842516
C      0.836157    2.005723    1.916929
C      5.361489    1.080929   -0.237608
C      4.943100   -1.213934   -1.076492
C      1.249850    0.735579    1.182545
C     -4.514419    4.380134   -0.500767
C      3.244671    0.084324    0.098724
C      6.012277   -0.210196   -0.666793
N      6.731127   -0.749068    0.469784
N     -5.065161    3.574418   -1.346525
O      5.442542   -2.509380   -1.199197
O     -5.252466    5.585999   -0.369520
O      4.033575    1.168480   -0.214906
O      2.524337    0.330453    1.242383
H     -0.900462   -6.047787    1.035944
H     -1.056876   -6.369720   -0.780200
H     -0.037126   -5.151807   -0.178719
H      0.179580   -3.331281   -1.737728
H     -1.170487   -2.283462   -2.220121
H     -1.568745   -3.733995   -1.452259
H     -5.836547    2.612759    0.365355
H     -4.682399    1.561459    1.336118
H     -6.188155    0.927582    0.686083
H      1.942079    3.880961    2.203797
H      3.015005    2.409248    1.837382
H      2.236040    2.594672    3.371720
H      5.019502    2.761562   -1.617219
H      6.483634    2.921688   -0.607709
H      6.523965    1.772162   -1.969901
H      8.761576   -0.285212    0.934744
H      7.435676    0.490860    1.941773
H      7.719721    1.055168    0.280100
H     -5.955813   -2.203846   -0.657302
H     -5.340927   -4.009332    0.252249
H     -3.791121   -0.865566   -2.219299
H     -5.343502   -1.383581   -2.797911
H     -0.187402    4.872654    1.003517
H     -1.519378    4.684166   -0.929491
H     -3.801486   -5.462229   -0.794805
H     -5.986709   -0.475882   -0.217298
H     -6.389256    0.286826   -1.740596
H     -0.867279    1.702681    0.922997
H     -3.731183    3.781913    1.282882
H      0.213052   -0.405908   -0.454782
H      0.718092   -0.923910    2.328104
H     -0.637267    0.128645    2.007453
H     -1.721068   -3.210439    1.814341
H     -0.319567   -3.969591    1.266083
H      3.159817   -2.003502   -0.315419
H      4.447409   -1.547002    0.915557
H     -4.076449    2.248769   -2.647579
H     -5.835680    2.057983   -2.419999
H     -3.643080    1.006056   -0.551482
H      0.369012    1.572235    2.893490
H      5.772273    1.379427    0.775003
H      4.541056   -0.961760   -2.089009
H      1.020469    0.924267    0.116540
H      2.488064    0.157864   -0.733203
H      6.679709   -0.065774   -1.545357
H      7.063021   -1.734468    0.312895
H      5.554205   -2.949043   -0.340057
H     -6.250354    5.638864   -0.394775
