75

C     -9.364160    4.073572   -0.031948
C      5.074729    4.520645   -0.318947
C     -2.350120   -2.571068   -2.325091
C     -8.086591    3.262690   -0.127692
C      5.694182    3.462944    0.593048
C     -8.262125    1.873342    0.419696
C     -6.989243    1.134594    0.300923
C     -5.882352    1.635144   -0.208829
C     -4.643379    0.874473   -0.309653
C      3.706620   -0.689195    1.282050
C      3.968487    0.599309    2.044494
C      2.494332   -3.789436   -1.285096
C      5.502152    2.135737   -0.094726
C      2.227674   -1.005302    1.235693
C      2.469632   -2.328428   -0.910688
C      5.450347    0.840743    2.047133
C      1.208990   -4.503230   -1.118587
C     -3.544225    1.383346   -0.820232
C     -0.437202   -1.744076    0.730005
C     -1.061282   -2.575826   -1.541883
C      2.022214   -2.277868    0.504478
C      6.070801    0.985582    0.699016
C      0.617774   -2.836877    0.716007
C      0.267872   -4.002921   -0.101657
C     -0.943783   -1.381160   -0.616024
C     -2.294716    0.656352   -0.936129
N     -1.031941   -3.787558   -0.769390
O      7.426196    1.284594    0.902972
O     -1.297396    1.208316   -1.431506
O     -2.136532   -0.651660   -0.518102
H     -9.172830    5.050185   -0.517673
H     -9.604696    4.276521    1.021107
H    -10.215664    3.562652   -0.510891
H      4.068645    4.135572   -0.613005
H      5.645234    4.649136   -1.251869
H      4.988438    5.480779    0.247079
H     -2.739895   -1.548662   -2.502178
H     -3.161311   -3.144717   -1.789049
H     -2.246893   -3.068677   -3.312404
H     -7.308043    3.779308    0.460477
H     -7.806258    3.145752   -1.208969
H      6.764194    3.690696    0.655841
H      5.159542    3.506621    1.555247
H     -8.527056    1.976817    1.501314
H     -9.113059    1.339426   -0.043767
H     -6.948170    0.093065    0.658859
H     -5.932025    2.676896   -0.563967
H     -4.635373   -0.141779    0.049574
H      4.215631   -1.516116    1.802282
H      4.117763   -0.609665    0.260517
H      3.422011    1.429837    1.553859
H      3.658691    0.422729    3.086774
H      3.301613   -4.254267   -0.645935
H      2.886819   -3.850097   -2.321337
H      6.061760    2.175315   -1.055639
H      4.453113    1.922186   -0.336908
H      1.823024   -1.114728    2.258159
H      1.771012   -0.118656    0.715499
H      3.509103   -1.979773   -0.980755
H      1.882930   -1.717570   -1.615878
H      5.918807   -0.059475    2.526504
H      5.743082    1.695546    2.690055
H      1.489577   -5.593814   -0.961784
H      0.741206   -4.543222   -2.151878
H     -3.591495    2.403348   -1.169091
H     -1.314511   -2.049436    1.367363
H     -0.006734   -0.868611    1.239268
H     -0.235851   -2.621310   -2.281870
H      2.699380   -3.032745    1.032183
H      6.021020    0.075749    0.099037
H      0.642193   -3.140296    1.812475
H      0.019347   -4.884217    0.572833
H     -0.212501   -0.686309   -1.082676
H     -1.812509   -3.883267   -0.100397
H      7.703785    1.152501    1.842279
