107

C      9.387426   -0.494695    1.510202
C      8.878742    0.797217   -0.523283
C     -5.497312    6.772828   -0.311692
C     -6.445327    5.980563    1.820154
C     -1.427713   -3.633938    2.871059
C      0.248214   -5.444540    2.304030
C      4.275727    3.099606   -0.617532
C     -4.615101    1.927886    1.308040
C      1.279468   -1.821296   -2.074170
C      2.521734   -1.435722   -0.065345
C      6.486716    1.437888    0.809157
C     -3.257077    4.692839    1.438566
C      7.069931    0.283120    1.095062
C     -4.448926    4.920213    0.950991
C      5.215500    1.879385    1.456375
C     -2.520118    3.409833    1.360851
C      2.982521    1.375186    0.562867
C     -3.399792   -3.900939   -0.591588
C      1.864786    1.544305   -0.383528
C     -3.646094   -5.191492   -0.214316
C      0.484835   -3.147488    1.415696
C     -2.964020    1.785278   -0.438877
C     -1.732498    2.077524   -1.208250
C      0.061431   -1.759057    1.260124
C     -3.487831   -4.506524   -2.882037
C      0.306034    0.902719   -2.120529
C      8.321810   -0.187541    0.479559
C     -5.150909    6.233498    1.057135
C     -0.198242   -4.031646    2.160225
C      4.124612    2.096496    0.470562
C     -3.309197    2.378530    0.678925
C     -3.314995   -3.531095   -1.934801
C      1.500571    0.437188   -1.273035
C     -3.816227   -6.156516   -1.219406
C     -3.742645   -5.842036   -2.539081
C     -2.001944   -1.507854   -1.777749
C     -3.031331   -2.152208   -2.242371
C     -1.864408   -0.097778   -2.186759
C     -0.941705   -2.044055   -0.944691
C     -0.725841    0.136873   -0.039901
C      1.309230   -0.942117   -0.781008
C     -0.979106    0.767494   -1.355216
C     -0.003651   -1.210828   -0.119693
O     -4.061371   -7.438450   -0.798970
O     -3.907703   -6.777800   -3.531026
O     -3.949039   -1.523973   -3.092460
O     -2.482900    0.317850   -3.197830
O     -0.818494   -3.318076   -0.934275
O     -1.029951    0.577607    1.037334
H      9.124872    0.007266    2.474450
H     10.360709   -0.089237    1.177149
H      9.496235   -1.589150    1.676371
H      8.165360    1.071048   -1.299250
H      9.272481    1.695947    0.018038
H      9.753899    0.331652   -1.021406
H     -6.393439    6.278415   -0.728996
H     -4.616028    6.653220   -0.992007
H     -5.735444    7.856022   -0.227299
H     -6.198501    5.199462    2.591657
H     -6.804272    6.893631    2.317422
H     -7.202152    5.570517    1.098565
H     -1.106793   -2.908082    3.660410
H     -1.888247   -4.474499    3.431671
H     -2.177398   -3.239910    2.201185
H      1.255330   -5.526996    1.818634
H      0.401770   -5.730216    3.360688
H     -0.458077   -6.166314    1.857327
H      4.198144    2.511186   -1.579089
H      3.519177    3.902679   -0.564031
H      5.302596    3.501941   -0.589848
H     -5.411361    1.804101    0.558540
H     -4.445007    0.888231    1.718433
H     -4.876762    2.535862    2.179679
H      1.706022   -2.838856   -1.833119
H      2.002088   -1.375911   -2.786794
H      0.304204   -1.867628   -2.524273
H      2.478231   -1.506225    1.009189
H      3.387881   -0.779845   -0.371688
H      2.862011   -2.444378   -0.425792
H      6.963082    2.075423    0.074373
H     -2.763645    5.535853    1.951369
H      6.592508   -0.343602    1.823211
H     -4.987811    4.144429    0.425851
H      4.909404    1.218198    2.271940
H      5.396667    2.884362    1.938016
H     -1.507053    3.521237    0.966218
H     -2.400203    3.007900    2.436857
H      2.981922    0.692734    1.412881
H     -3.278831   -3.111428    0.164645
H      0.986471    2.048273    0.110997
H      2.222927    2.401387   -1.069467
H     -3.715771   -5.500241    0.814411
H      1.378841   -3.590527    0.946845
H     -3.667656    0.994237   -0.832102
H     -1.970836    2.476077   -2.226960
H     -1.115997    2.788678   -0.700297
H      0.627316   -1.058818    1.949073
H     -0.990283   -1.688608    1.671893
H     -3.425899   -4.239607   -3.921921
H      0.337140    0.362309   -3.071256
H      0.479658    1.976201   -2.321556
H      8.123865   -1.156045   -0.061182
H     -4.519472    6.963795    1.575158
H      2.334078    0.367259   -2.051421
H     -4.193977   -8.181926   -1.444267
H     -4.088913   -7.732376   -3.323329
H     -4.532882   -0.753367   -2.766464
