36

C     -3.274666    0.743174   -1.360615
C     -0.186607   -1.837448   -0.216284
C     -1.316558   -0.930805   -0.688411
C      1.110905   -1.527859   -0.879476
C     -2.065739   -0.306979    0.463137
C      2.331267   -1.682010   -0.011028
C      1.080613    1.393530    0.789937
C      0.364196    2.024276   -0.052427
C     -2.805287    0.943997    0.055183
C      2.286520   -0.755144    1.128022
C      2.426366    0.720632    0.810259
C     -0.984840    2.686361   -0.033182
O      3.262976   -1.064070    2.108710
O      3.311615    0.963315   -0.196751
O     -1.060049    3.946468   -0.401833
O     -2.179593    2.141365    0.322003
H     -3.862463   -0.187011   -1.391323
H     -4.009863    1.571995   -1.582524
H     -2.489994    0.822570   -2.110894
H     -0.463043   -2.885360   -0.549307
H     -0.192923   -1.885905    0.868171
H     -2.083142   -1.513544   -1.269403
H     -0.886246   -0.218759   -1.389832
H      1.089659   -0.469713   -1.248172
H      1.285182   -2.198670   -1.782998
H     -1.384067   -0.035209    1.291664
H     -2.742384   -1.085812    0.873081
H      3.224659   -1.575557   -0.656436
H      2.334696   -2.725538    0.406050
H      0.779580    1.161314    1.902568
H      0.639940    2.243795   -1.157006
H     -3.752022    0.947802    0.678514
H      1.315345   -0.823780    1.660036
H      3.001449    1.121577    1.731380
H      2.940035   -0.751716    2.993256
H      2.954484    1.028717   -1.104071
