59

C      7.345952    0.415469   -1.635911
C      2.826376   -1.250866    1.255636
C      1.739647   -0.779539    2.122333
C      3.175240   -0.484949    0.060618
C      0.363819   -0.777081    1.644807
C      4.322949   -1.078029   -0.735750
C     -0.081959   -0.009715    0.458408
C      5.601735   -1.205227   -0.006698
C     -1.632787   -0.222699    0.422260
C      6.124252    0.114783    0.484902
C     -2.208351    0.510122   -0.743096
C     -4.133313   -1.073515   -0.987149
C     -5.608285   -1.113120   -1.216848
C     -6.441831    1.849447    1.031742
C      6.348414    1.035450   -0.696478
C     -3.686842    0.345373   -0.833005
C     -5.761987    1.119053   -0.105920
C     -6.397438   -0.210817   -0.333918
N     -4.374500    0.897798    0.330913
O     -5.720257    3.053998    1.200585
O      6.786315    2.281378   -0.227089
O     -7.641947    0.012160   -0.963766
H      6.828854   -0.093408   -2.467645
H      7.955270   -0.318621   -1.083151
H      7.996936    1.234494   -2.044430
H      3.713981   -1.450409    1.929979
H      2.542402   -2.330355    0.965042
H      2.024509    0.261265    2.542016
H      1.720967   -1.401926    3.105196
H      3.568627    0.530060    0.395691
H      2.336263   -0.250338   -0.579342
H     -0.365459   -0.474937    2.491891
H     -0.011577   -1.855951    1.453801
H      4.476116   -0.539146   -1.682074
H      3.952738   -2.099916   -1.047581
H      0.144897    1.060270    0.515260
H      0.281125   -0.389617   -0.526252
H      5.610265   -1.988396    0.779341
H      6.366587   -1.563709   -0.758116
H     -1.983036    0.140111    1.395809
H     -1.855854   -1.300775    0.350226
H      7.063478   -0.036315    1.065363
H      5.428731    0.648531    1.171131
H     -1.752390    0.265680   -1.701416
H     -2.011725    1.602446   -0.575789
H     -3.643987   -1.588757   -1.840963
H     -3.848677   -1.628859   -0.055031
H     -5.803614   -0.815559   -2.277014
H     -6.013839   -2.148470   -1.101950
H     -7.506780    2.017636    0.875484
H     -6.311167    1.301951    1.986913
H      5.378848    1.203780   -1.199677
H     -4.076953    0.917253   -1.708855
H     -5.702262    1.709991   -1.017309
H     -6.629085   -0.733195    0.605352
H     -4.451666    0.125956    1.053086
H     -5.487938    3.359420    0.272350
H      6.977179    2.228999    0.740210
H     -7.856968    0.971345   -1.004942
