107

C      6.406521    3.212336   -2.024545
C      6.894646    0.810542   -1.812956
C     -7.023449    3.817987   -2.278831
C     -5.496633    5.467403   -1.174249
C     -0.875838   -0.666884   -4.821935
C      1.243292    0.463602   -3.984461
C      3.505357    1.341577    3.703039
C     -1.074583    3.998750    0.095603
C      3.069002   -1.846037    0.214687
C      1.413832   -3.230904    1.271975
C      6.022405    1.208082    0.834129
C     -3.704382    3.458162   -1.201972
C      6.573909    2.240150    0.214223
C     -4.971010    3.072949   -1.166086
C      5.549886    1.388880    2.213295
C     -2.578953    2.461830   -1.222858
C      3.300316    0.725486    1.368260
C     -3.827432   -5.350252    1.188611
C      1.877762    0.532271    1.639983
C     -4.894403   -5.588874    2.052435
C      0.346161   -1.565754   -2.942191
C     -1.513175    1.757645    0.827287
C     -2.068114    0.432432    0.806661
C      1.430453   -1.660486   -1.893469
C     -2.784976   -4.016396    2.832925
C     -0.165784   -0.740188    1.992568
C      7.070987    2.148855   -1.160626
C     -6.049442    4.074161   -1.147003
C      0.258179   -0.633410   -3.846625
C      4.096111    1.124194    2.379310
C     -1.739342    2.659139   -0.080323
C     -2.769201   -4.560994    1.579692
C      1.327601   -0.847054    1.678348
C     -4.877608   -5.030371    3.291700
C     -3.826972   -4.240918    3.694206
C     -1.193317   -3.205269    0.262392
C     -1.661745   -4.375542    0.661239
C     -1.829242   -2.007977    0.769441
C     -0.081226   -3.032465   -0.647584
C     -0.187784   -0.637328   -0.416115
C      1.635157   -1.819862    0.632380
C     -1.057104   -0.710522    0.819644
C      0.738091   -1.790258   -0.570004
O     -5.930623   -5.252983    4.172830
O     -3.834958   -3.682640    4.963769
O     -0.985945   -5.487687    0.112673
O     -3.013250   -1.962912    1.181558
O      0.142180   -3.964575   -1.476969
O     -0.259363    0.277402   -1.183888
H      6.235048    4.096242   -1.347989
H      7.047942    3.508521   -2.873082
H      5.403449    2.856796   -2.331583
H      7.495195    0.837011   -2.767746
H      5.846269    0.613176   -2.132866
H      7.320697   -0.011411   -1.204572
H     -7.317011    2.751742   -2.230181
H     -7.960115    4.394813   -2.059844
H     -6.567633    4.075381   -3.233765
H     -4.936002    5.625535   -2.115145
H     -4.901148    5.626547   -0.262033
H     -6.365269    6.159188   -1.095548
H     -0.640207   -1.533537   -5.501443
H     -0.989033    0.281823   -5.339177
H     -1.844852   -0.907502   -4.337199
H      2.260194    0.037658   -3.859522
H      1.218856    0.843526   -5.036457
H      1.059962    1.328567   -3.336979
H      2.882854    0.500942    4.070800
H      4.287119    1.524721    4.492922
H      2.882284    2.255966    3.668913
H     -1.137466    4.606304   -0.810050
H     -1.622807    4.549116    0.890846
H     -0.026891    3.892601    0.459220
H      3.299612   -1.307835   -0.728808
H      3.300432   -2.931983   -0.081887
H      3.784954   -1.669446    1.037470
H      0.619947   -3.193106    2.019335
H      2.359498   -3.504405    1.825480
H      1.317795   -4.000869    0.495406
H      5.922211    0.262475    0.341099
H     -3.490704    4.508155   -1.216162
H      6.679979    3.211247    0.712853
H     -5.241648    2.011923   -1.150395
H      5.790756    2.418653    2.600481
H      6.143404    0.709180    2.890531
H     -3.013241    1.510907   -1.437760
H     -1.985049    2.752405   -2.145003
H      3.782514    0.597960    0.394649
H     -3.854300   -5.794367    0.222552
H      1.620073    1.074456    2.607516
H      1.261944    1.178400    0.898967
H     -5.746405   -6.217292    1.750977
H     -0.443214   -2.344125   -2.950587
H     -0.850256    1.990252    1.694918
H     -2.788690    0.172185    0.043188
H     -2.642434    0.317406    1.781179
H      2.065864   -2.499831   -2.182873
H      1.942819   -0.653415   -1.986588
H     -1.929075   -3.394677    3.157778
H     -0.317650    0.203239    2.581968
H     -0.489232   -1.541553    2.685980
H      8.171598    2.368805   -1.181394
H     -6.644458    3.920573   -0.203914
H      1.740905   -1.286035    2.646634
H     -6.694901   -5.819046    3.894396
H     -4.588546   -3.829562    5.617314
H     -1.341929   -5.899690   -0.744994
