53

C      6.279453    0.661027   -0.306987
C      3.961393   -0.379808    1.180796
C      1.506176    2.178025   -0.656635
C     -3.851532    0.598055    1.401984
C     -3.902307    0.869898   -1.005274
C     -0.540335   -1.528674    1.126142
C      5.175063    0.376518   -0.948948
C     -2.584787   -2.176791   -0.796945
C      2.908579   -0.405829   -0.994033
C      1.687107   -0.929348   -0.355969
C     -3.529451   -1.334361   -0.031614
C     -1.331683   -1.512878   -1.231830
C     -1.317666    1.082511    1.460056
C      4.001352   -0.137518   -0.278028
C      0.701137    1.301340   -0.018230
C      0.497927   -0.054394   -0.578892
C      0.026211    1.728987    1.237047
C     -1.750719    0.448376    0.156672
C     -3.185121    0.093714    0.110906
C     -0.791616   -0.688802   -0.089001
O      0.891322    1.547526    2.293620
H      7.124668    1.046674   -0.889408
H      6.470827    0.564413    0.740065
H      3.187815    0.234187    1.674164
H      4.914090   -0.178052    1.663102
H      3.763370   -1.467090    1.324200
H      1.986763    1.866648   -1.569678
H      1.653162    3.171478   -0.242133
H     -4.014386    1.692448    1.362159
H     -4.886547    0.150412    1.406508
H     -3.333898    0.250573    2.292956
H     -4.057201    1.902965   -0.627932
H     -3.189622    0.870789   -1.868973
H     -4.833475    0.352155   -1.226496
H      0.167246   -1.063252    1.839544
H     -0.140997   -2.517562    0.753598
H     -1.445545   -1.770101    1.690167
H      5.132761    0.528985   -2.017875
H     -3.052994   -2.643790   -1.712775
H     -2.291716   -3.070058   -0.170897
H      2.950969   -0.232729   -2.064166
H      1.881038   -1.013765    0.742830
H      1.548744   -1.959562   -0.748845
H     -4.535914   -1.412920   -0.542886
H     -3.735402   -1.781973    0.985895
H     -1.472408   -0.870315   -2.100860
H     -0.560006   -2.279199   -1.464807
H     -2.020352    1.872309    1.793003
H     -1.291942    0.303120    2.245578
H      0.433048    0.109501   -1.706453
H     -0.096103    2.852478    1.142216
H     -1.544914    1.216748   -0.634920
H      0.438414    1.536908    3.177435
