129

C     15.502792    1.636960   -0.220404
C      4.689046    1.376348   -3.754483
C     14.803165    0.865670   -1.332001
C     13.455249    0.377415   -0.822207
C     13.620406   -0.525911    0.368963
C     12.301653   -1.013789    0.886807
C     -2.154777    1.592279    1.699567
C     11.563267   -1.790273   -0.156616
C     -3.031954    2.029377    0.595024
C     -0.780666    1.171927    1.417911
C     10.233475   -2.333602    0.292350
C     -4.431029    2.412991    1.087599
C      0.222455    2.068342    0.844372
C      9.335143   -1.212933    0.686654
C     -5.131153    1.286803    1.714515
C    -11.532083   -1.315143    1.047156
C      0.085040    2.625363   -0.512045
C    -10.779631   -1.242354    2.361243
C     -9.479779    3.829155   -1.098948
C      7.978644   -1.690772    1.160461
C     -5.405687    0.102635    0.859656
C     -9.511612    2.575266   -0.264434
C      3.424836   -2.576408    0.557927
C      2.641655   -1.524759   -0.263600
C    -11.908811   -2.727054    0.715427
C     -8.409293    3.631410   -2.116938
C      0.003207    1.560198   -1.591173
C    -10.421556    0.224477    2.641383
C      5.935309   -2.898201    0.662582
C      4.791214    0.878406   -2.315448
C      7.233425   -2.480236    0.077468
C      4.717535   -2.632849   -0.182453
C     -6.318026    0.356783   -0.276238
C     -8.201878    1.909610   -0.512464
C      3.707869   -0.488527   -0.594912
C      3.525848    0.140249   -1.964005
C     -7.657255    0.874461    0.137041
C      2.425244    1.145792   -1.938412
C     -8.384820    0.263828    1.225969
C    -13.221716   -4.639217    1.586823
C     -6.423141    2.180753   -2.033489
C      6.026975   -0.920074   -1.389062
N    -13.202705   -5.259934    0.443823
N    -13.722984   -5.289862    2.747651
N     -5.792246    2.822930   -3.152376
N    -12.750855   -3.306539    1.724707
N      6.018256    0.135794   -2.154640
N      7.170267   -1.727471   -1.154481
N     -5.749531    1.097992   -1.368170
N     -7.561566    2.548691   -1.600938
N      4.858263   -1.337050   -0.735409
O      2.635427    2.356428   -2.165244
O     -7.913341   -0.705978    1.850975
O      1.134523    0.737828   -1.656422
O     -9.621467    0.731651    1.608645
H     14.776148    1.858857    0.567330
H     16.310164    0.985729    0.220191
H     15.960609    2.535697   -0.690586
H      3.657301    1.554568   -4.081431
H      5.183648    0.587582   -4.365878
H      5.247461    2.325041   -3.831954
H     15.391856    0.003078   -1.662451
H     14.626797    1.527179   -2.198021
H     12.993086   -0.150725   -1.686435
H     12.792996    1.242786   -0.589663
H     14.188137   -1.413937    0.021374
H     14.223105   -0.026768    1.134272
H     11.694404   -0.183693    1.319347
H     12.536723   -1.680626    1.769016
H     -2.193808    2.411358    2.504505
H     -2.725447    0.757263    2.237728
H     11.328465   -1.103815   -1.020303
H     12.169817   -2.650811   -0.492269
H     -2.706133    2.961288    0.069242
H     -3.141864    1.246183   -0.158354
H     -0.347692    0.842914    2.439660
H     -0.801121    0.165547    0.863419
H      9.838632   -2.930508   -0.556497
H     10.422614   -2.961588    1.188623
H     -4.954684    2.849457    0.226690
H     -4.329620    3.273221    1.816866
H      1.232485    1.557874    0.932977
H      0.309693    2.962513    1.555341
H      9.785495   -0.701814    1.577596
H      9.236092   -0.438033   -0.097537
H     -6.138020    1.630960    2.144614
H     -4.612110    0.899653    2.646097
H    -10.920049   -0.843485    0.248292
H    -12.450787   -0.682481    1.130848
H      1.038105    3.197492   -0.779350
H     -0.737252    3.321486   -0.638548
H     -9.880676   -1.868624    2.381993
H    -11.479592   -1.577938    3.177393
H    -10.494168    3.978548   -1.561370
H     -9.303784    4.748701   -0.476263
H      7.408628   -0.780165    1.434970
H      8.113916   -2.369353    2.011039
H     -5.683512   -0.798515    1.458848
H     -4.412987   -0.207465    0.398201
H     -9.559864    2.901579    0.805015
H    -10.346833    1.908336   -0.499116
H      2.829870   -3.502887    0.530643
H      3.593877   -2.197719    1.575956
H      1.939033   -1.050407    0.446999
H      2.180102   -1.953444   -1.149435
H    -10.980423   -3.340803    0.657450
H    -12.431028   -2.746588   -0.263429
H     -8.831700    3.342573   -3.095769
H     -7.800240    4.554531   -2.247477
H     -0.893217    0.921845   -1.399089
H     -0.203223    2.074930   -2.553646
H    -11.341477    0.832056    2.696218
H     -9.928999    0.282555    3.642997
H      5.806048   -2.507642    1.707909
H      5.960697   -4.018447    0.804144
H      4.866728    1.801757   -1.673084
H      7.897891   -3.362721   -0.119442
H      4.606148   -3.439262   -0.948210
H     -6.556523   -0.717510   -0.677405
H      3.876662    0.234640    0.207530
H      3.378308   -0.660934   -2.687476
H    -12.824708   -4.749030   -0.396936
H    -13.157521   -5.949379    3.321537
H    -14.711643   -5.071748    3.006768
H     -4.789524    2.688208   -3.366653
H     -6.364573    3.432847   -3.752506
H    -13.018667   -2.761292    2.554926
H      7.926191   -1.749240   -1.876890
H     -4.815079    0.839686   -1.710110
