55

C      5.568212   -1.925392   -0.138062
C     -5.307136    1.038887   -0.435645
C     -6.673562    1.102501   -0.696535
C     -5.506721   -1.284708   -0.060090
C     -1.454677    0.112807    1.782176
C     -0.174185   -0.034007   -1.715500
C      5.132836   -0.878416   -1.114801
C     -4.705105   -0.150131   -0.113040
C     -0.565826    0.098210    0.592105
C     -7.468671   -0.047300   -0.639977
C     -6.869554   -1.257519   -0.315555
C      1.187401   -0.090933   -1.499777
C     -2.864945    0.485460    1.394990
C     -1.070597    0.066479   -0.681194
C      1.724997   -0.058811   -0.232948
C      5.813257    0.442034   -0.805157
C      0.833002    0.031662    0.810267
C      5.274427    1.104385    0.412603
C      3.764689    0.979313    0.543089
C     -3.268713   -0.310055    0.172192
C      3.185467   -0.215010   -0.098189
O     -8.826839   -0.008116   -0.893121
O     -7.637772   -2.441007   -0.257309
O      2.039207   -0.173181   -2.562463
O     -2.916588    1.859081    1.202674
O      5.644155    1.241711   -1.921203
O      1.280512    0.043488    2.115920
O      5.921830    0.767600    1.600534
O      3.425071    1.197218    1.835015
O      3.753961   -0.705220   -1.226509
O     -2.460019    0.151772   -0.895099
H      6.656350   -2.141644   -0.384991
H      5.030559   -2.854855   -0.291869
H      5.584480   -1.587466    0.921328
H     -4.743234    1.936208   -0.487846
H     -7.162992    2.045440   -0.948709
H     -5.073168   -2.269005    0.179088
H     -1.095043    0.680606    2.635660
H     -1.485842   -0.994975    2.091984
H     -0.582573   -0.070833   -2.719892
H      5.482172   -1.197205   -2.114369
H     -3.548734    0.277380    2.264963
H      6.887282    0.209297   -0.695013
H      5.467839    2.214262    0.267364
H      3.302448    1.871230   -0.057237
H     -3.040129   -1.364946    0.361632
H      3.278766   -1.042711    0.741312
H     -9.368891    0.792048   -1.126961
H     -7.154273   -3.280357   -0.002475
H      1.751943   -0.182892   -3.542787
H     -2.455294    2.190038    0.408166
H      6.271867    0.976240   -2.631809
H      0.735460    0.064959    2.943074
H      5.214011    0.409752    2.220995
H      3.268879    2.176624    1.986031
