61

C     -2.458181    3.614435   -0.760087
C      6.439472   -0.692430   -1.160951
C      5.233013    1.006694    0.106962
C     -1.118230   -3.348146    2.621218
C     -0.763135    1.513383   -2.092287
C     -2.789032    0.227746   -2.254649
C     -2.797383    2.449935   -1.245931
C     -5.270363   -0.111410    1.365081
C     -5.079695   -1.380261    1.860205
C     -4.295012    0.603391    0.717466
C     -3.843706   -1.957800    1.694898
C      3.948216   -0.830948   -1.007905
C     -0.929282    1.070261    0.948535
C      5.228037   -0.443060   -0.310080
C     -0.653693   -2.604676    1.437765
C     -3.045465   -0.009220    0.561804
C      2.780972   -0.561780   -0.117266
C     -2.812055   -1.277525    1.043941
C      0.405620    0.346219    0.941149
C      1.527500    1.273904    0.661720
C      1.511155   -0.950616   -0.819351
C     -1.076049   -0.847674   -0.370339
C     -2.039371    1.218813   -1.331220
C     -1.805104    0.461199   -0.080371
N      2.631986    0.853644    0.170089
N     -1.461145   -1.678499    0.785314
N      0.308013   -0.556584   -0.180947
O      0.509841   -2.830429    1.025821
O      1.412129    2.644996    0.928578
O      1.508184   -1.585154   -1.904314
H     -3.194727    4.438713   -0.789602
H     -1.522160    3.914107   -0.321320
H      7.328791   -0.740428   -0.502827
H      6.589232    0.226939   -1.791637
H      6.336663   -1.573056   -1.818348
H      4.806519    1.140916    1.120814
H      6.303241    1.316424    0.185043
H      4.730005    1.638777   -0.641677
H     -1.725140   -4.253630    2.368436
H     -1.692615   -2.731879    3.337040
H     -0.243309   -3.728954    3.213009
H     -1.095869    2.072834   -3.016141
H     -0.062931    2.161683   -1.582837
H     -0.272740    0.601916   -2.482944
H     -3.454276    0.836454   -2.908828
H     -2.064734   -0.286803   -2.910947
H     -3.324175   -0.530391   -1.679282
H     -3.829084    2.415667   -1.682716
H     -6.250232    0.344635    1.497438
H     -5.879375   -1.915592    2.368290
H     -4.468493    1.600720    0.350774
H     -3.669690   -2.948339    2.066363
H      3.873065   -0.316754   -1.970708
H      3.994681   -1.931639   -1.177088
H     -1.347053    0.904342    1.980343
H     -0.707583    2.123996    0.884551
H      5.354285   -1.049025    0.623592
H      2.872823   -1.136323    0.808334
H      0.595239   -0.211791    1.883529
H     -1.335240   -1.304084   -1.318623
H      2.147650    3.302158    0.673118
