55

C      1.239592   -3.099460   -0.543577
C     -1.983822   -1.342587   -0.232404
C     -2.681715   -2.473297   -0.702423
C     -3.413689   -1.185485    1.644031
C     -1.919037    2.968819    0.988165
C      0.704932    3.743513   -1.575650
C      1.808387   -1.778935    0.010097
C     -2.313592   -0.684304    0.914234
C     -0.712928    2.795075    0.119095
C     -3.744822   -2.907918    0.057534
C     -0.408542    3.802002   -0.760810
C     -4.130609   -2.266920    1.254966
C      1.540508    2.639350   -1.504384
C     -2.515316    1.672024    1.357726
C      1.225317    1.608990   -0.603531
C      3.323610   -1.987960    0.012273
C      4.061333   -0.685094    0.260154
C      2.925875    0.284935    0.687955
C     -1.619156    0.506744    1.463196
C      0.094591    1.663501    0.217846
C      2.129820    0.457443   -0.627944
O     -4.476555   -4.016773   -0.332725
O     -1.233084    4.927075   -0.863432
O     -5.186727   -2.760209    1.935977
O      2.694183    2.535882   -2.318062
O     -3.141766    1.847189    2.633352
O      3.626811   -2.837780    1.046550
O      4.599197   -0.172607   -0.941687
O      3.535830    1.513103    1.005252
O      1.399089   -0.744072   -0.777485
O     -0.285378    0.674564    1.100919
H      0.173253   -3.118589   -0.304769
H      1.735109   -3.931840    0.028820
H      1.481789   -3.253396   -1.601616
H     -1.173410   -1.029844   -0.885187
H     -2.370871   -2.999004   -1.628810
H     -3.698884   -0.644048    2.533598
H     -1.583451    3.525737    1.880943
H     -2.711096    3.591441    0.463787
H      0.963495    4.512306   -2.283821
H      1.377122   -1.684473    1.025927
H     -3.413025    1.380609    0.716046
H      3.593045   -2.446367   -0.970127
H      4.841497   -0.722215    1.006618
H      2.394260   -0.073531    1.525134
H     -1.526161    0.253608    2.609257
H      2.804293    0.531376   -1.481937
H     -4.226280   -4.547129   -1.170734
H     -1.000455    5.674022   -1.517345
H     -5.795790   -3.518744    1.802275
H      2.904996    3.325888   -2.924068
H     -3.284091    2.802095    2.764545
H      4.572793   -2.940515    1.247717
H      4.278689   -0.790450   -1.663012
H      4.520831    1.406254    0.878049
