55

C     -5.397003    2.138504    1.110792
C      5.692474    1.159650    0.626682
C      7.011218    0.827512    0.412830
C      5.003772   -0.912430   -0.344460
C      1.679017    0.156276   -1.396652
C      0.232581   -0.746062    1.911427
C     -4.719748    1.071730    0.229350
C      4.673458    0.279821    0.243757
C      0.644659   -0.182425   -0.390180
C      7.365953   -0.365546   -0.176960
C      6.343328   -1.210445   -0.542956
C     -1.137842   -0.791188    1.663656
C      2.576054    1.216178   -0.718427
C      1.114319   -0.447108    0.902400
C     -1.615914   -0.533750    0.394880
C     -5.749514    0.056403   -0.249110
C     -0.697264   -0.232627   -0.610784
C     -5.085370   -0.939172   -1.135527
C     -3.568311   -0.669632   -1.185446
C      3.265468    0.664238    0.483453
C     -3.082588   -0.572880    0.206711
O      8.696183   -0.710638   -0.398677
O      6.636420   -2.431021   -1.142676
O     -1.980690   -1.094738    2.711658
O      1.646014    2.180896   -0.255304
O     -6.700297    0.802762   -0.983845
O     -1.173507    0.020206   -1.856383
O     -5.351690   -2.252528   -0.770371
O     -2.967431   -1.769113   -1.848629
O     -3.631219    0.536976    0.837737
O      2.494656   -0.382940    1.065731
H     -5.967742    2.855427    0.446401
H     -4.604173    2.718087    1.602019
H     -6.127500    1.685745    1.815250
H      5.431215    2.113246    1.095181
H      7.817919    1.516228    0.710396
H      4.222344   -1.624504   -0.653841
H      1.260570    0.687396   -2.264030
H      2.252532   -0.698107   -1.745880
H      0.609566   -0.951802    2.912059
H     -4.396563    1.643284   -0.685234
H      3.251231    1.692164   -1.423957
H     -6.291710   -0.388555    0.617101
H     -5.490569   -0.819739   -2.180748
H     -3.438616    0.275692   -1.724301
H      3.265294    1.470094    1.277538
H     -3.434660   -1.488275    0.746925
H      9.413690   -0.036576   -0.101163
H      7.579486   -2.753547   -1.339947
H     -2.981692   -1.157837    2.670312
H      1.443468    2.051019    0.706112
H     -7.430611    1.080611   -0.381035
H     -0.588324    0.232663   -2.627496
H     -5.073752   -2.498821    0.125214
H     -2.938587   -2.470799   -1.121963
