56

C      4.087989    1.003844   -0.881366
C      4.933794    2.056852   -0.813342
C      2.953830    1.714151    1.064619
C      2.383549   -2.794901   -0.415969
C     -1.109388   -3.492669   -1.625884
C     -3.956305    2.447517   -1.341335
C      3.062218    0.792481    0.059195
C      0.932959   -2.591229   -0.706439
C      4.818957    2.977248    0.199448
C      0.242329   -3.628936   -1.367689
C      3.807478    2.775112    1.132169
C     -1.833790   -2.380564   -1.265571
C      2.885236   -1.660828    0.441822
C     -3.373892    1.498961   -0.388113
C     -1.161881   -1.352664   -0.608214
C     -4.254611    1.004459    0.718994
C     -3.344512    0.432241    1.777656
C     -2.076427   -0.190827    1.291025
C      2.266985   -0.391663   -0.158852
C      0.196142   -1.489708   -0.358064
C     -1.846840   -0.127850   -0.210671
O     -5.004261    1.978498   -2.090150
O      5.697902    4.035870    0.242788
O      0.944665   -4.758813   -1.744801
O      3.672220    3.691177    2.158403
O     -3.153879   -2.303981   -1.545914
O      4.280835   -1.542465    0.444672
O     -5.205942    0.083135    0.280909
O     -4.037650   -0.487574    2.581061
O     -0.996414    0.295905    1.974246
O     -2.862003    0.302010   -0.973507
O      0.911730   -0.423707    0.277604
H      4.220750    0.284610   -1.708458
H      5.728599    2.199526   -1.556474
H      2.169060    1.578192    1.794523
H      2.978547   -2.773822   -1.375049
H      2.515325   -3.784304    0.112863
H     -1.652547   -4.298964   -2.135829
H     -3.158458    2.855465   -2.000603
H     -4.323155    3.360659   -0.758848
H      2.493519   -1.751315    1.456700
H     -2.499234    2.008201    0.136477
H     -4.816777    1.832480    1.214628
H     -3.055617    1.266255    2.455165
H     -2.099130   -1.328358    1.575951
H      2.255561   -0.609085   -1.280653
H     -1.033746    0.721830   -0.309472
H     -4.702284    1.567482   -2.955937
H      5.632851    4.713686    0.983352
H      1.936970   -4.812546   -1.543047
H      2.975341    3.626780    2.875621
H     -3.854336   -1.640662   -1.377653
H      4.664090   -2.436083    0.533569
H     -5.390131    0.146760   -0.687118
H     -3.571461   -0.514986    3.443006
H     -1.274763    0.317117    2.958559
