56

C      4.607384   -0.137409   -0.144851
C      5.669225    0.658675   -0.549000
C      3.194249    1.718968   -0.215766
C      2.117275   -2.534919   -0.800749
C     -1.400750   -3.717484   -0.401931
C     -5.444677    0.317415    1.103188
C      3.323649    0.386397    0.034647
C      0.649261   -2.603936   -0.616421
C      5.497100    1.995864   -0.790600
C     -0.057559   -3.742387   -0.704496
C      4.242897    2.558655   -0.626896
C     -1.987232   -2.516709   -0.019214
C      2.559189   -1.893323    0.546156
C     -4.011225    0.720385    1.103197
C     -1.253508   -1.311372    0.071801
C     -3.880158    1.995736    0.257484
C     -2.439382    2.343833    0.291959
C     -1.461443    1.211846    0.037116
C      2.218992   -0.439275    0.501921
C      0.075881   -1.380152   -0.232621
C     -1.937081   -0.075140    0.565211
O     -5.965620    0.207729   -0.188182
O      6.531200    2.839312   -1.201858
O      0.479996   -4.963314   -1.090176
O      4.041105    3.901938   -0.863022
O     -3.305175   -2.598539    0.254776
O      1.687488   -2.479553    1.513789
O     -4.348774    1.689339   -1.008670
O     -2.125479    3.461136   -0.490912
O     -0.252947    1.702724    0.587704
O     -3.285918   -0.225954    0.382975
O      0.965802   -0.278748   -0.187918
H      4.846675   -1.187900    0.009360
H      6.681907    0.243958   -0.693389
H      2.260295    2.219981   -0.099595
H      2.618879   -3.492306   -0.948889
H      2.317569   -1.840960   -1.637000
H     -1.993670   -4.619164   -0.461330
H     -6.092530    1.083734    1.617765
H     -5.600520   -0.685421    1.589961
H      3.533628   -2.194076    0.854339
H     -3.637171    0.900070    2.106588
H     -4.448238    2.776805    0.777492
H     -2.219989    2.679263    1.348105
H     -1.280780    1.142265   -1.090754
H      1.991416   -0.154984    1.580109
H     -1.731314   -0.063667    1.700710
H     -5.986519   -0.762844   -0.475267
H      7.467036    2.459061   -1.321448
H      1.440107   -5.087630   -1.328343
H      4.819929    4.469819   -1.150316
H     -4.027412   -2.111123    0.528431
H      1.217002   -1.808663    2.029622
H     -4.616876    2.453977   -1.539358
H     -2.226894    4.299292    0.021857
H     -0.036298    2.468779   -0.031207
