55

C      2.287922   -0.361002    3.023680
C     -2.176260    2.151887    0.016263
C     -2.830294    3.163692    0.730838
C     -2.903920    0.629185    1.681429
C     -1.910727   -1.197407   -2.489285
C      1.166602   -3.369615   -2.757250
C      1.609838    0.221135    1.771798
C     -2.204296    0.866381    0.479142
C     -0.582965   -1.798296   -2.345412
C     -3.506846    2.923811    1.890379
C     -0.121646   -2.889316   -2.990345
C     -3.545287    1.627198    2.379890
C      2.026273   -2.753624   -1.864765
C     -2.528354   -1.056466   -1.078151
C      1.536054   -1.634239   -1.214362
C      2.180943    1.516496    1.313995
C      2.411901    1.593460   -0.182454
C      2.970858    0.297981   -0.626436
C     -1.619390   -0.288458   -0.171694
C      0.263432   -1.168345   -1.442773
C      2.363844   -0.983751   -0.136693
O     -4.136583    3.949502    2.557663
O     -0.970824   -3.536872   -3.907445
O     -4.222549    1.353014    3.559785
O      3.303240   -3.238166   -1.651163
O     -3.780345   -0.517638   -1.144762
O      1.372382    2.634976    1.616623
O      3.374927    2.585429   -0.467165
O      4.352403    0.264787   -0.202809
O      1.402587   -0.758131    0.871684
O     -0.320010   -0.048136   -0.796208
H      2.147113   -1.481849    3.015847
H      3.318761   -0.033615    3.035409
H      1.796676   -0.000572    3.947304
H     -1.618080    2.358961   -0.895926
H     -2.764673    4.150916    0.296959
H     -2.921056   -0.380933    2.045923
H     -2.643676   -1.832731   -3.060832
H     -1.808973   -0.180253   -2.933227
H      1.516561   -4.251069   -3.289132
H      0.552476    0.503955    2.147979
H     -2.614242   -2.136756   -0.739112
H      3.165504    1.735699    1.810249
H      1.506642    1.841635   -0.761690
H      3.044071    0.311761   -1.760395
H     -1.358758   -1.009769    0.676140
H      3.100390   -1.692223    0.213642
H     -4.181317    4.908723    2.316907
H     -0.606867   -4.378715   -4.388476
H     -4.238706    0.385302    3.926502
H      3.997203   -2.869315   -1.062966
H     -4.527594   -1.055188   -0.827711
H      1.393456    3.317768    0.891326
H      3.923551    2.235271   -1.228509
H      4.558629   -0.626476    0.199790
