56

C     -5.799302    0.866627    0.483493
C     -7.116788    0.832358    0.044030
C     -5.305464   -0.959099   -0.900758
C     -1.569938    1.011756    1.607737
C     -0.430774   -0.491632   -1.601901
C      5.445089   -2.374880   -0.782143
C     -4.864269   -0.030384    0.019112
C     -0.719076    0.514674    0.505810
C     -7.536302   -0.088471   -0.862584
C     -6.622666   -0.994929   -1.341438
C      0.941935   -0.381807   -1.463566
C     -3.026048    1.138494    1.250118
C     -1.288673   -0.038299   -0.605572
C      4.824738   -0.997920   -0.675045
C      1.510319    0.179862   -0.335212
C      0.657855    0.619433    0.634267
C      5.675017   -0.188726    0.277657
C      5.081926    1.150154    0.555857
C      3.564537    1.071828    0.795037
C     -3.454483   -0.036798    0.451568
C      2.987594    0.243713   -0.295670
O      5.507218   -3.001692    0.461712
O     -8.859733   -0.152839   -1.329753
O     -7.048518   -1.944484   -2.273866
O      1.692344   -0.868104   -2.523824
O     -3.690694    1.236716    2.478617
O      1.176288    1.180307    1.767634
O      5.893333   -0.942479    1.422814
O      5.625708    1.634717    1.751903
O      3.156874    2.424586    0.668867
O     -2.655374   -0.129239   -0.707569
O      3.537251   -1.042492   -0.179299
H     -5.551656    1.621772    1.194107
H     -7.823057    1.552901    0.427984
H     -4.650477   -1.704395   -1.325488
H     -1.414133    0.406977    2.528138
H     -1.217179    2.063581    1.820518
H     -0.901186   -0.928296   -2.475530
H      4.848522   -3.024889   -1.463894
H      6.458862   -2.246424   -1.204757
H     -3.254068    2.073772    0.709784
H      4.896773   -0.534708   -1.683331
H      6.675710   -0.030131   -0.191091
H      5.314955    1.824334   -0.288455
H      3.451166    0.683188    1.811364
H     -3.322686   -0.966308    1.050023
H      3.324880    0.646082   -1.270307
H      4.619652   -3.389183    0.630897
H     -9.152253   -0.837319   -1.997983
H     -6.392784   -2.615241   -2.634704
H      2.689077   -0.859121   -2.580652
H     -3.575402    2.103597    2.901765
H      0.714893    1.580674    2.544400
H      6.801925   -1.319198    1.466509
H      6.595483    1.709349    1.647801
H      3.573065    2.748032   -0.160347
