32

C     -2.221660   -0.912139    0.800314
C     -3.005527    0.215702   -1.223821
C      3.162934   -1.075959    0.654569
C      1.140821    0.249955    1.313294
C     -0.059544   -0.432899   -1.184745
C     -2.120053    0.336215   -0.023971
C      1.710427   -0.761234    0.395774
C     -0.678953    0.666214   -0.394151
C      1.466048   -0.335337   -1.031508
C      0.111288    1.151120    0.763208
O      1.915483    0.934066   -1.311806
O      0.711340    2.410223    0.514663
H     -1.229290   -1.196961    1.201387
H     -2.607890   -1.730398    0.157103
H     -2.984931   -0.799877    1.620906
H     -4.058609    0.258285   -0.846711
H     -2.913866   -0.736281   -1.763112
H     -2.894458    1.044177   -1.943254
H      3.430735   -1.947608    0.021392
H      3.281209   -1.345786    1.708514
H      3.834923   -0.248314    0.343562
H      2.006293    0.848498    1.728893
H      0.746771   -0.294677    2.222352
H     -0.314038   -1.441175   -0.767747
H     -0.351446   -0.392162   -2.259273
H     -2.528512    1.170198    0.601461
H      1.154602   -1.727131    0.530447
H     -0.771780    1.540750   -1.108679
H      1.954086   -1.030938   -1.748510
H     -0.625587    1.378671    1.591680
H      2.749294    1.160847   -0.847890
H     -0.010109    3.043955    0.285656
