29

C     -1.199101    1.583322   -0.651760
C     -2.787846   -0.189777   -1.318788
C      4.496254    0.331558   -0.498379
C     -0.735143    0.213869    1.883463
C      0.571695    0.273456    1.196732
C     -1.124258   -1.688149    0.400854
C     -1.726153   -0.370550    0.902554
C      0.764743   -0.253534    0.005504
C     -0.415731   -0.833412   -0.659603
C      2.096923   -0.236572   -0.575688
C     -1.556086    0.150081   -0.495990
O      2.249092   -0.747067   -1.713484
O      3.178168    0.307563    0.061530
H     -1.539145    1.919252   -1.653237
H     -1.769510    2.196403    0.081887
H     -0.113892    1.802071   -0.609699
H     -2.957124   -1.268986   -1.377535
H     -2.671440    0.289438   -2.310603
H     -3.647577    0.306072   -0.820121
H      5.147881   -0.200552    0.228864
H      4.809292    1.391097   -0.506767
H      4.507802   -0.131311   -1.504920
H     -0.623767   -0.489954    2.737236
H     -1.055595    1.215257    2.241731
H      1.391168    0.764696    1.688607
H     -0.403828   -2.132525    1.109360
H     -1.853201   -2.389166   -0.028415
H     -2.743628   -0.518816    1.261563
H     -0.289995   -1.293763   -1.628211
