29

C     -2.781687    0.912948    0.619211
C     -1.283592    1.087463   -1.379331
C      4.470129    0.729994   -0.159591
C     -0.662042   -1.631159   -1.195960
C      0.701390   -1.195313   -0.801547
C     -1.086032   -1.176540    1.201058
C     -1.674290   -1.142852   -0.217312
C      0.801800   -0.226607    0.083526
C     -0.417472    0.158826    0.829827
C      2.074852    0.430850    0.307085
C     -1.592392    0.379353   -0.099760
O      2.188180    1.364216    1.154668
O      3.231640    0.088434   -0.378948
H     -3.528221    1.240515   -0.154824
H     -3.282351    0.110387    1.212872
H     -2.580306    1.785115    1.256598
H     -1.512988    2.153333   -1.248586
H     -0.222720    0.993570   -1.685861
H     -1.986500    0.699831   -2.161851
H      4.831273    1.102498   -1.133925
H      4.313305    1.544845    0.573478
H      5.166896   -0.036988    0.234163
H     -0.715014   -2.725073   -1.307871
H     -0.843818   -1.197738   -2.214156
H      1.583876   -1.679912   -1.246988
H     -0.368945   -1.991181    1.372536
H     -1.837125   -1.096317    1.998442
H     -2.685323   -1.537326   -0.291173
H     -0.302524    0.854828    1.651797
