55

C      4.609865   -2.390499    1.157635
C      4.040509   -1.193952    0.318310
C     -4.268831   -0.219233    0.610339
C      0.062196    2.158369   -1.985572
C      1.018938    2.489082   -2.943158
C      0.181805   -0.831598    1.968600
C     -3.366893   -1.387158    0.897583
C     -1.319027   -0.989104    2.124430
C     -1.154071    2.135695    0.804706
C     -3.849207    0.316942   -0.736550
C     -2.474032    2.092886    0.109799
C     -1.319617   -2.390870    0.127797
C      0.390365    1.383762   -0.878300
C      2.312269    2.047215   -2.800259
C      0.571206    0.395895    1.216290
C      2.799509   -0.719750    0.939410
C     -0.446290   -1.875611   -0.922951
C      1.677472    0.930754   -0.717219
C      2.614870    1.270065   -1.678249
C     -1.914756   -1.096295    0.717012
C     -0.422829    0.914335    0.275721
C     -1.524311    0.000186   -0.162241
N     -2.540624    0.876587   -0.625609
N      1.803845    0.140100    0.480093
O      3.317871    2.349380   -3.732654
O      2.609402   -1.199014    2.123336
O      0.580790   -2.393594   -1.375424
O      3.907826    0.852294   -1.569054
O     -0.998419   -0.672651   -1.324289
H      3.815964   -3.141404    1.276588
H      5.484383   -2.741273    0.574444
H      4.935222   -1.947247    2.118316
H      4.856233   -0.424089    0.316377
H      3.899419   -1.621400   -0.673725
H     -5.305691   -0.626170    0.587507
H     -4.211022    0.513151    1.430286
H     -0.926551    2.541594   -2.174175
H      0.792347    3.090061   -3.814573
H      0.547929   -1.765799    1.505478
H      0.576240   -0.789685    3.001094
H     -3.601030   -1.737371    1.940946
H     -3.716097   -2.234422    0.240353
H     -1.792841   -0.228174    2.737225
H     -1.490502   -1.976586    2.598731
H     -1.326277    2.091389    1.886944
H     -0.597241    3.074967    0.595553
H     -3.853686   -0.522237   -1.447201
H     -4.549878    1.123597   -1.011582
H     -3.331485    2.215826    0.829081
H     -2.636635    2.943262   -0.615538
H     -0.872909   -3.036936    0.874893
H     -2.125937   -2.982186   -0.399042
H      0.791874    1.223206    1.958655
H      3.095849    2.908781   -4.539882
H      4.642490    1.054930   -2.216287
