38

C      3.435731   -1.115667    0.851163
C      4.739801    0.872946    0.060554
C     -3.500550   -1.525482    1.052809
C     -0.321787    0.180867   -1.207803
C     -1.688694   -0.465959   -1.145985
C      1.103985    0.409034    0.772378
C      3.520302    0.397476    0.792728
C     -3.628332   -0.177272    0.428030
C     -0.203704    0.793012    0.156621
C      2.285779    0.881197    0.006424
C     -2.341724    0.375298   -0.089455
C     -4.699079   -0.135289   -0.594529
O      2.446566    0.421496   -1.262168
O     -5.380626   -1.153372   -0.854217
O     -4.980123    1.024710   -1.293113
O     -1.325947    0.379274    0.877636
H      4.454905   -1.576480    0.928718
H      2.910868   -1.369195    1.799318
H      2.857679   -1.536029    0.017288
H      5.233164    1.648609    0.670048
H      5.484915    0.056913   -0.112321
H      4.469698    1.363236   -0.917969
H     -3.818893   -1.544237    2.125799
H     -4.212349   -2.215660    0.532447
H     -2.481527   -1.956628    0.965519
H     -0.361581    0.990243   -1.966724
H      0.453104   -0.579732   -1.443785
H     -1.519999   -1.503898   -0.787084
H     -2.211766   -0.434611   -2.118178
H      1.197279   -0.713759    0.870791
H      1.116298    0.758666    1.831370
H      3.458140    0.838014    1.798849
H     -3.964751    0.527053    1.245966
H     -0.294669    1.909799    0.119441
H      2.339255    2.009727    0.038883
H     -2.428034    1.409410   -0.468967
H      3.206121   -0.151027   -1.439431
H     -5.349456    0.907318   -2.241050
