27

C     -2.477246    1.942455    1.460577
C      3.557810    1.614558    0.394911
C     -0.167959   -0.333874   -2.027507
C      0.723588   -0.986366    0.187800
C     -1.699242    0.678066    1.135932
C      2.590133    0.656972   -0.234038
C     -1.409531   -1.838811   -0.669248
C     -0.495976   -0.607851   -0.573429
N     -1.241848    0.458485   -0.001969
O     -1.545603   -0.197591    2.202601
O      2.585398    0.507728   -1.480170
O     -2.616789   -1.773634   -0.366499
O     -0.890744   -3.045168   -1.098401
O      1.695392   -0.080354    0.457782
H     -3.549597    1.734751    1.442044
H     -2.245626    2.730249    0.723193
H     -2.181378    2.259469    2.480821
H      4.001595    1.184624    1.328160
H      3.113708    2.579858    0.625524
H      4.404791    1.733873   -0.311977
H      0.618641   -1.014928   -2.394453
H     -1.081492   -0.613576   -2.670194
H      0.075171    0.711385   -2.244084
H      0.346735   -1.357602    1.197475
H      1.125659   -1.957737   -0.249979
H     -1.779966   -1.180205    2.129845
H     -1.455623   -3.804775   -1.444716
