75

C     -6.087710    0.602093    0.534350
C     -6.250959   -1.816640   -0.206222
C      5.888249    0.903580   -2.946397
C     -2.504901   -1.424725   -1.625145
C      1.793430    5.977468   -2.413326
C     -1.053993   -5.288515    1.119303
C      2.639569    5.244616   -1.626015
C      0.487739    5.560793   -2.572748
C     -0.481326   -5.083685   -0.116162
C     -1.107403   -4.204199    1.968612
C      2.236755    4.093395   -0.977701
C      0.103105    4.421490   -1.926405
C      0.010114   -3.844354   -0.469057
C     -0.620974   -2.964779    1.627979
C     -4.448409   -1.080445    1.274980
C     -3.716596   -0.083408    2.056392
C      0.417719    2.467698   -0.487028
C      1.115585    1.664632    0.297322
C      3.887466   -0.929585    1.286815
C      3.089580   -0.032921   -0.731448
C      5.467041   -0.217360   -0.381578
C     -0.011154    0.801340    2.284345
C     -5.530074   -0.775513    0.578690
C      0.944497    3.662226   -1.122677
C     -0.043981   -2.750570    0.387950
C      2.800524   -0.572350    0.505536
C      5.186485   -0.757079    0.855592
C      4.393876    0.141924   -1.168016
C     -2.329965    0.116362    1.566835
C     -1.450370    1.049339    2.309080
C      0.490372   -1.451907   -0.012781
C      1.401427   -0.760721    0.971256
C     -0.414779   -0.261550    0.043083
C     -1.788874   -0.463291    0.522652
C      0.518840    0.442663    0.928019
O      6.263774   -1.120464    1.651184
O     -1.921923    2.021622    2.939553
O      4.601457    0.686600   -2.414334
O     -2.564970   -1.348300   -0.209382
H     -6.745820    0.756089   -0.344114
H     -5.305089    1.383489    0.467581
H     -6.641229    0.774395    1.476143
H     -5.619250   -2.057154   -1.092466
H     -7.264914   -1.499421   -0.482918
H     -6.255622   -2.736742    0.418295
H      6.385611   -0.055763   -3.146723
H      5.806786    1.462669   -3.899615
H      6.524805    1.519054   -2.279026
H     -1.468756   -1.690409   -1.905587
H     -2.735609   -0.466220   -2.112363
H     -3.177356   -2.241092   -1.946588
H      2.084171    6.880967   -2.930915
H     -1.451152   -6.249714    1.431199
H      3.659315    5.573998   -1.504144
H     -0.218926    6.117737   -3.192738
H     -0.425613   -5.910821   -0.799768
H     -1.555254   -4.319157    2.964745
H      2.916402    3.536544   -0.367047
H     -0.936260    4.114449   -2.070180
H      0.469090   -3.672646   -1.454524
H     -0.658877   -2.111317    2.295897
H     -4.098570   -2.106286    1.278821
H     -3.710364   -0.463614    3.122715
H     -4.237452    0.894067    2.132720
H     -0.629676    2.221563   -0.674714
H      2.149738    1.887909    0.496123
H      3.664038   -1.358400    2.269828
H      2.248205    0.258541   -1.372564
H      6.495202   -0.078311   -0.728769
H      0.218817   -0.004405    3.035951
H      0.531320    1.703441    2.687367
H      1.044077   -1.552585   -0.996226
H      1.413523   -1.253689    1.984433
H     -0.475201    0.208034   -0.984421
H      6.590652   -2.090680    1.524659
