38

C     -0.303437    0.638116    3.101851
C     -5.543384    0.211553   -0.816752
C      5.414366   -0.196828   -0.791788
C      5.404028   -0.547969    0.537584
C      4.269691    0.109699   -1.489591
C      4.199399   -0.593070    1.190821
C      3.049769    0.058545   -0.807298
C      3.006063   -0.286475    0.512192
C     -1.022142   -0.500290   -1.095231
C     -0.474790    0.207894   -0.064362
C     -2.392097   -0.775125   -1.164131
C     -2.684614    0.390728    0.874278
C      1.676166    0.334422   -1.293079
C     -1.335077    0.662687    0.944232
C      0.944986    0.491832    0.006351
C     -3.223195   -0.322330   -0.167201
C     -0.172890   -0.993272   -2.166802
O     -2.865502   -1.505375   -2.253086
O     -3.521234    0.843250    1.872293
O     -0.675134   -1.648505   -3.121663
O     -0.758313    1.376179    1.975518
O     -4.564714   -0.581721   -0.218341
O      1.685950   -0.258358    0.934787
O      1.177345   -0.711138   -2.081996
H      0.770696    0.877942    3.327525
H     -0.953461    0.812048    3.998502
H     -0.316118   -0.459241    2.914021
H     -5.173212    1.088381   -1.351510
H     -6.173123   -0.417183   -1.480000
H     -6.233376    0.578170   -0.009772
H      6.353019   -0.148303   -1.351353
H      6.334648   -0.784299    1.056352
H      4.273610    0.388969   -2.545151
H      4.120435   -0.865008    2.248770
H      1.674121    1.265245   -1.906564
H      1.055478    1.577169    0.302712
H     -3.859618   -1.689807   -2.277936
H     -3.164340    1.371466    2.655816
