62

C      6.157301    1.382737   -1.346094
C      6.977855    0.647935    0.852800
C     -2.891197   -2.917745   -2.025474
C     -9.095774    0.639639    0.624366
C     -8.378697    0.050311    1.648349
C     -8.384755    1.419205   -0.274667
C     -7.013287    0.228630    1.772816
C     -7.039944    1.595708   -0.153366
C      0.325438    1.699810    1.112756
C      1.746649    1.185153    1.081815
C      5.400911   -0.846374   -0.377992
C     -1.953872    0.928841    0.654759
C     -1.077819   -1.188198   -0.872546
C      1.822470   -1.601283    0.408893
C      3.378710    0.547969   -0.575896
C     -4.885836    1.217535    0.968420
C      6.436416    0.200098   -0.504237
C     -6.353212    1.000970    0.869887
C     -0.582434    0.717357    0.454138
C      4.079161   -0.471485    0.209522
C     -0.143363   -0.340839   -0.309321
C      1.316013   -0.550066   -0.510981
C      3.279317   -1.683757    0.581233
C     -2.428304   -0.989230   -0.681548
C     -2.880620    0.084909    0.093666
N      1.969687    0.687716   -0.253202
O      3.568452   -2.104948    1.884514
O     -3.369136   -1.839549   -1.246600
O     -4.237810    0.218435    0.238694
H      5.449769    1.258140   -2.159418
H      7.137724    1.664962   -1.871360
H      5.992537    2.271627   -0.689987
H      8.072560    0.832498    0.814595
H      6.497844    1.613224    1.112403
H      6.800776   -0.103116    1.634306
H     -3.690290   -3.652336   -2.251471
H     -2.477123   -2.479674   -2.963319
H     -2.093865   -3.485697   -1.503267
H    -10.166657    0.518926    0.499839
H     -8.905784   -0.573490    2.379091
H     -8.903860    1.909788   -1.105599
H     -6.485770   -0.248976    2.587819
H     -6.509573    2.211370   -0.871859
H      0.309876    2.608094    0.453140
H     -0.012923    1.954012    2.143312
H      2.452725    2.031670    1.247474
H      1.897934    0.437396    1.868215
H      5.859332   -1.706443    0.185888
H      5.260157   -1.268686   -1.430980
H     -2.312660    1.747535    1.246079
H     -0.694712   -2.002570   -1.461730
H      1.405659   -2.587410    0.044080
H      1.299757   -1.454554    1.400502
H      3.390413    0.283898   -1.664945
H      3.791579    1.566327   -0.489732
H     -4.673310    2.224370    0.554920
H     -4.583118    1.253816    2.033801
H      7.333690   -0.329290   -0.971251
H      4.338851    0.020637    1.205378
H      1.482038   -0.835088   -1.567586
H      3.660614   -2.521742   -0.076563
H      3.333495   -3.078701    1.919830
