34

C      5.604321    0.204071    0.451254
C     -5.371446    0.178221    0.505466
C     -5.401441   -0.033735   -0.856273
C     -4.171963    0.249908    1.212164
C     -4.195997   -0.174744   -1.508658
C      1.395570    0.967080   -1.163235
C     -2.990836    0.103379    0.519498
C      0.551367    0.234653   -0.341408
C      2.747809    0.726054   -1.185150
C     -2.973453   -0.109988   -0.841565
C      1.131541   -0.741090    0.447551
C      2.506078   -0.990258    0.429146
C     -1.554893    0.126067    0.964391
C     -0.897133    0.540098   -0.358111
C      3.342987   -0.231807   -0.415137
C      0.233475   -1.501839    1.301739
O      3.605598    1.469442   -2.019448
O      3.106205   -1.942275    1.192945
O      0.661882   -2.401118    2.047984
O      4.707943   -0.479946   -0.432767
O     -1.636389   -0.220623   -1.272633
O     -1.131395   -1.190216    1.258249
H      5.071880    1.092911    0.881001
H      6.481728    0.509407   -0.157451
H      5.863200   -0.470317    1.285382
H     -6.324062    0.292292    1.037861
H     -6.356312   -0.081496   -1.359235
H     -4.179708    0.418630    2.289569
H     -4.219095   -0.340905   -2.576116
H      0.960075    1.729773   -1.783239
H     -1.371172    0.840214    1.765854
H     -1.111579    1.600220   -0.543872
H      3.196373    2.181947   -2.598221
H      2.718840   -2.554009    1.822466
