30

C     -2.820735    0.306719    1.225442
C     -2.927100    0.180993   -0.277545
C     -1.459188   -0.216097    1.653291
C      2.304886   -1.204213    0.381728
C      3.680931   -1.157777    0.363256
C     -0.737643   -0.198565   -1.433886
C      2.177957    0.628827   -1.065039
C      1.506590   -0.308039   -0.335119
C     -1.761518    0.827407   -0.980240
C      0.056177   -0.477235   -0.233714
C     -0.439974    0.507656    0.800939
C      4.299117   -0.189550   -0.391700
F      5.660830   -0.083265   -0.457326
N      3.526755    0.667319   -1.077410
N     -1.028428    1.564791    0.028114
H     -3.579843   -0.276517    1.744351
H     -2.877708    1.363614    1.543172
H     -3.843826    0.768265   -0.563232
H     -3.115030   -0.845233   -0.591983
H     -1.469352   -1.307949    1.459785
H     -1.246772    0.009876    2.708996
H      1.821674   -1.983754    0.990479
H      4.309914   -1.842456    0.911150
H     -0.185262    0.126038   -2.328160
H     -1.312346   -1.102036   -1.726401
H      1.588412    1.329127   -1.633227
H     -2.102589    1.420932   -1.823532
H     -0.137847   -1.523855    0.142165
H      0.395842    0.912807    1.411625
H     -0.283923    2.102169   -0.445978
