48

C      0.371383   -3.230943   -1.868076
C      2.767655   -1.323633    0.043206
C     -2.821625   -2.580925    1.861199
C      2.542862    1.597241    1.925505
C      0.701529   -0.997084   -1.177120
C     -1.153376   -2.354227   -0.015730
C     -2.422445    0.814744   -1.359279
C     -0.841821    2.642493   -1.638442
C     -0.176377   -2.200102   -0.849185
C      1.555862   -0.404761   -0.138951
C     -1.903093   -1.620430    1.052981
C      2.511226    1.975566    0.486711
C     -1.847466    1.801851   -2.254529
C     -2.073535    0.664848   -0.057180
C     -0.451980    2.546548   -0.366358
C      2.047871    0.947656   -0.457062
C     -2.791871   -0.493846    0.539867
C     -1.068599    1.540851    0.494203
C      1.829396    3.306818    0.300094
N      0.612930    3.455180   -0.050738
O     -2.194990    1.913100   -3.456928
O      2.076797    1.256539   -1.646043
O     -3.745790   -0.216233    1.490681
O     -0.677838    1.482259    1.777927
O      2.603611    4.436292    0.535090
H      1.490250   -2.969588   -2.033697
H     -0.042225   -3.017310   -2.880243
H      0.420429   -4.254019   -1.677008
H      3.293935   -1.143697    1.001576
H      2.426375   -2.399660    0.102144
H      3.433799   -1.281869   -0.833120
H     -3.283870   -1.925533    2.624293
H     -2.150267   -3.266945    2.387273
H     -3.565550   -3.044464    1.215897
H      2.134719    0.595133    2.166324
H      3.527879    1.771756    2.425822
H      1.850528    2.303798    2.476685
H      1.496898   -1.299222   -1.944203
H      0.142257   -0.244523   -1.815871
H     -1.807482   -3.340296    0.026654
H     -3.200862    0.158150   -1.800893
H     -0.428690    3.408814   -2.341740
H      1.028408   -0.413899    0.811928
H     -1.298560   -1.181115    1.867734
H      3.610605    2.114421    0.210388
H     -3.424166   -1.042571   -0.261727
H     -3.310981    0.191228    2.275631
H      2.206252    5.321608    0.824307
