34

C      2.863304    1.409543   -0.602664
C     -0.028985    2.783158    1.113393
C     -0.596417   -2.519645    1.847304
C     -3.056082   -0.581231   -1.461393
C     -3.209202    0.788253   -1.411467
C     -1.971405   -1.200144   -0.875787
C     -2.239505    1.509897   -0.756054
C      1.083618   -1.768344   -0.342358
C      2.203740   -0.901952   -0.829419
C     -0.993794   -0.468878   -0.214632
C     -1.126569    0.893458   -0.153216
C      0.993234    0.470248    0.607698
C      0.236476   -0.855765    0.479767
N      1.882051    0.411295   -0.479667
N     -0.032478    1.453151    0.561496
O      0.030981   -1.297765    1.770110
H      3.867253    0.911199   -0.695618
H      2.775997    2.088083   -1.451192
H      2.925890    1.963570    0.380650
H      0.560050    3.506736    0.506584
H     -1.046558    3.219415    1.197998
H      0.360460    2.727747    2.160459
H     -0.722449   -2.803029    2.918652
H     -1.644943   -2.367276    1.477164
H     -0.084573   -3.347509    1.358496
H     -3.820854   -1.149394   -1.978172
H     -4.066574    1.275518   -1.874597
H     -1.841107   -2.270558   -0.909174
H     -2.352539    2.582101   -0.712877
H      1.451128   -2.659510    0.209033
H      0.486553   -2.065263   -1.238822
H      2.422185   -1.041546   -1.906565
H      3.121744   -1.216127   -0.249644
H      1.569371    0.520564    1.554515
