29

C     -3.468395    0.334111   -1.696407
C      2.811735   -1.189330    0.673892
C     -1.778478    1.115119    0.936380
C     -2.314215    0.945551   -1.481060
C     -0.186922   -1.373583    0.366899
C     -1.504779   -1.028621   -0.301235
C      2.010149   -0.341337   -0.253371
C      0.594601   -0.117087    0.213815
C      2.707466    0.950730   -0.480489
C     -1.430551    0.500141   -0.397403
O      2.119856    2.030600   -0.157414
O      3.973830    1.029740   -1.030635
O     -0.084538    0.690679   -0.680816
H     -3.770343   -0.510807   -1.063859
H     -4.129327    0.659644   -2.499274
H      3.893963   -1.067437    0.377489
H      2.606682   -2.275283    0.580260
H      2.694627   -0.809017    1.699439
H     -1.419922    0.539290    1.790582
H     -2.892585    1.235972    1.010602
H     -1.338685    2.133623    0.988040
H     -2.040490    1.771639   -2.114973
H     -0.413871   -1.642768    1.424026
H      0.227274   -2.242377   -0.165281
H     -2.369122   -1.353861    0.305459
H     -1.550179   -1.412988   -1.342314
H      1.950370   -0.882959   -1.242401
H      0.601578    0.410886    1.199093
H      4.500269    1.899734   -0.876100
