90

C      7.541315    2.236788    1.665957
C     -2.281289   -4.131009    2.159135
C      2.481195   -3.511218   -0.311837
C     11.735795    0.323752   -0.861434
C     -6.577589    6.670497    0.920482
C      3.963543    0.399140    1.151924
C      5.139906    0.977372    1.242239
C      3.525788   -0.217449   -0.076855
C     -5.489777   -2.050018    1.255552
C      6.059797    1.032974    0.132467
C     -5.394297   -3.233142    0.337908
C     -5.238568   -0.729652    0.524877
C      2.321680   -0.787821   -0.101913
C     -0.708324   -3.461192    0.347468
C     -0.017942   -2.856327   -0.554794
C     -3.087340   -4.077016   -0.117867
C      8.200742    1.727868   -0.762142
C     -4.387554    2.307506   -0.763763
C     -2.089243    2.460724    0.379493
C     -3.750761    4.165528    0.665856
C     -4.843408    0.084154   -1.813957
C     -0.402684    0.760049   -0.358934
C      7.228391    1.651278    0.354991
C     -2.150348   -3.365167    0.809907
C      1.390765   -2.906292   -1.046974
C     -3.427340    2.999074    0.096356
C     -4.219900   -3.195821   -0.590254
C     -4.950146   -1.105943   -0.921865
C     -3.800237    1.079984   -1.368885
C     -1.740899    1.416353   -0.620419
C      1.816838   -1.427903   -1.307058
C      9.444640    1.051138   -0.361823
C     -5.042236    4.807459    0.475146
C      0.256843    0.485440   -1.659059
O      9.564953    0.531518    0.759226
O     -5.966177    4.336405   -0.229970
O      0.331116    1.419484   -2.519725
O     10.538737    0.963437   -1.219426
O     -5.312536    6.021080    1.094787
O     -3.807527   -1.903315   -0.901252
O     -2.789860    0.486742   -0.613419
O      0.775565   -0.728983   -1.945020
H      8.481854    2.821652    1.612317
H      6.756546    2.966936    1.993290
H      7.624579    1.464059    2.473105
H     -1.369845   -3.818520    2.736744
H     -2.255467   -5.206649    1.999375
H     -3.157374   -3.744695    2.706525
H      2.141107   -3.790459    0.727668
H      3.380981   -2.887036   -0.141876
H      2.788085   -4.501857   -0.759135
H     12.524210    1.105621   -0.785400
H     12.057791   -0.430732   -1.614191
H     11.559357   -0.188916    0.115316
H     -7.390978    5.898626    0.872854
H     -6.711648    7.389133    1.731770
H     -6.553059    7.155937   -0.085116
H      3.288567    0.379072    2.026507
H      5.393398    1.426156    2.227159
H      4.115751   -0.245945   -0.982615
H     -4.855668   -2.140303    2.164388
H     -6.545069   -2.002800    1.618199
H      5.827086    0.607727   -0.813904
H     -6.358255   -3.374964   -0.218420
H     -5.280955   -4.138461    0.981894
H     -4.329219   -0.300787    0.959679
H     -6.093985   -0.040331    0.612355
H      1.734624   -0.764171    0.793140
H     -0.336193   -4.300767    1.033134
H     -0.445054   -2.055699   -1.291336
H     -2.461915   -4.426943   -0.989891
H     -3.520444   -4.997143    0.311133
H      7.792178    1.297017   -1.699251
H      8.389709    2.815598   -0.936698
H     -5.292350    2.085387   -0.151842
H     -4.734684    2.947958   -1.612562
H     -2.073049    1.979952    1.402093
H     -1.310187    3.263979    0.424267
H     -3.018147    4.653604    1.296912
H     -4.668260   -0.282108   -2.844145
H     -5.838693    0.584777   -1.814552
H      0.196319    1.496810    0.239914
H     -0.505662   -0.138176    0.273220
H     -2.521043   -2.379326    1.083846
H      1.402539   -3.324760   -2.111095
H     -4.565639   -3.643303   -1.567829
H     -5.763164   -1.750199   -1.329593
H     -3.278242    1.403655   -2.319330
H     -1.717399    1.875778   -1.627156
H      2.655343   -1.451856   -2.065995
