64

C      8.540433   -0.701939   -1.068477
C     -8.660729   -0.412939    0.237252
C      5.294921    0.624223   -0.000500
C     -5.191816    0.452148    1.192411
C      5.964519   -1.559508   -0.640048
C     -6.130117   -0.246335   -0.854865
C      6.260030   -0.257207   -0.424978
C     -6.287087    0.067686    0.462078
C      4.005975    0.157982    0.205660
C     -3.937034    0.520255    0.595763
C      4.651667   -2.011912   -0.426417
C     -4.889377   -0.197847   -1.514214
C      3.650756   -1.157842   -0.000823
C     -3.804447    0.195762   -0.736084
C      0.733450    1.325589    1.829224
C     -0.499753    1.965734    1.239953
C      1.317717   -0.678484    0.510572
C     -1.378232    0.537444   -0.575369
C      0.920809    1.482976   -0.558565
C     -0.870622   -0.380183    1.665292
C      2.263676   -1.510701    0.179339
C     -2.457137    0.223023   -1.300585
C      0.113133    0.206539    2.654909
C      0.091514    2.628426    0.001728
C     -0.074049   -1.178503    0.677627
C     -0.044842    0.557424   -1.203415
C      2.967466    1.055761    0.730647
C     -2.800487    0.979975    1.361213
C      1.517721    0.766932    0.659488
C     -1.423849    0.825902    0.880723
O      4.383071   -3.325626   -0.650101
O     -4.822303   -0.524929   -2.825621
O      1.906927   -2.873239   -0.021670
O     -2.282741   -0.089212   -2.640371
O      1.101108   -0.668572    3.030818
O     -0.958116    2.976631   -0.820279
O     -0.489228   -2.155509    0.048368
O      0.193155   -0.156023   -2.183299
O      3.395604    2.131044    1.267764
O     -2.999034    1.527671    2.470986
O      7.551769    0.205399   -0.632673
O     -7.559211   -0.012025    1.026607
H      8.301438   -1.112795   -2.084218
H      8.606577   -1.606713   -0.400536
H      9.525011   -0.208709   -1.082998
H     -8.881933    0.300119   -0.586823
H     -9.538130   -0.628826    0.858771
H     -8.397028   -1.390885   -0.262101
H      5.533255    1.667146    0.171390
H     -5.263531    0.707303    2.223724
H      6.683373   -2.268449   -0.966733
H     -6.971485   -0.551082   -1.455256
H      1.299821    2.039464    2.431534
H     -0.959178    2.687191    1.915051
H      1.708601    1.834523   -1.242610
H     -1.649812   -0.973953    2.137035
H     -0.396400    0.694345    3.509421
H      0.697713    3.475111    0.332545
H      3.637751   -3.908617   -0.598581
H     -4.110905   -0.553596   -3.447519
H      1.489654   -3.395799    0.716841
H     -1.850145   -0.982523   -2.882514
H      1.957922   -0.192193    3.243015
H     -0.687779    3.052948   -1.789921
