49

C     -5.073387   -1.301196    0.397297
C     -5.245343    0.810046   -0.895419
C     -0.343286    1.918686    0.969433
C      6.107364   -0.113773    1.632241
C      1.874984    1.837583   -2.653109
C     -2.473034   -0.017238    0.053426
C      3.263820   -1.139854    1.080797
C      1.940114   -0.763072    1.346471
C     -3.232771   -0.679748   -1.104628
C     -1.009059   -0.158662   -0.275179
C      3.216518    0.154891   -0.901667
C      5.303436   -1.105476   -0.284816
C      3.909551   -0.681957   -0.046503
C      1.264712    0.073226    0.480676
C      1.911865    0.528703   -0.643491
C     -4.724741   -0.597012   -0.880819
C     -0.110834    0.447705    0.774686
O     -5.329470   -1.295712   -1.924036
O     -0.484261   -0.170529    1.988768
O      6.237119   -0.238130    0.258703
O      1.221819    1.360725   -1.491873
H     -6.080337   -1.750879    0.278825
H     -5.142503   -0.582813    1.235896
H     -4.328981   -2.065649    0.646284
H     -6.331130    0.756187   -1.138309
H     -5.168341    1.233450    0.127967
H     -4.691524    1.398765   -1.648800
H     -1.311823    2.020378    1.517060
H     -0.443894    2.476687    0.023017
H      0.432470    2.304463    1.636568
H      5.105416    0.274838    1.899387
H      6.841969    0.584564    2.063493
H      6.286436   -1.095784    2.146982
H      2.832911    2.283690   -2.332964
H      1.239727    2.533330   -3.233158
H      2.146831    0.956187   -3.298732
H     -2.655511   -0.579411    0.983071
H     -2.817054    1.013706    0.109491
H      3.746404   -1.796188    1.790791
H      1.496151   -1.159593    2.248541
H     -2.929138   -0.219002   -2.065389
H     -2.979018   -1.759006   -1.172384
H     -0.753740   -1.209331   -0.400146
H     -0.854404    0.365705   -1.238135
H      3.746584    0.499453   -1.778336
H      5.457056   -1.231044   -1.367496
H      5.418934   -2.139356    0.148914
H     -5.178008   -2.273958   -1.860601
H     -1.310597    0.291402    2.273748
