57

C      7.804070    1.080881    0.331229
C     -4.396622    2.270585    0.020996
C      7.193870    0.000870   -0.529311
C      5.692129    0.188182   -0.598314
C      5.158970    0.100495    0.799237
C      3.653262    0.273600    0.868911
C      2.994539   -0.790466    0.065600
C      1.471734   -0.724219    0.067885
C      1.033921    0.571551   -0.497152
C     -0.407285    0.871682   -0.552264
C     -1.340484    0.058854   -1.325985
C     -1.566436   -1.360237   -1.033212
C     -2.064460   -1.708507    0.337366
C     -4.475604   -1.620849   -0.271813
C     -5.781420   -1.185753    0.368946
C     -4.582275    0.975501    0.830846
C     -3.392924   -1.133939    0.703250
C     -5.801277    0.316661    0.333250
N     -3.367678    0.270121    0.766629
O     -6.924525    0.739966    1.045237
H      7.140523    1.938654    0.485835
H      8.027839    0.610225    1.316953
H      8.742539    1.399363   -0.182861
H     -5.175293    3.004658    0.254591
H     -4.430772    1.992983   -1.053772
H     -3.366817    2.606254    0.232989
H      7.598949    0.006260   -1.570076
H      7.371590   -1.019848   -0.098297
H      5.412551    1.166357   -1.011652
H      5.309740   -0.607867   -1.267400
H      5.611351    0.928073    1.381069
H      5.450445   -0.842007    1.313761
H      3.380168    0.134736    1.942305
H      3.443519    1.305709    0.588143
H      3.257120   -1.768135    0.509241
H      3.299657   -0.800387   -0.989386
H      1.039493   -0.889364    1.061833
H      1.191422   -1.541177   -0.661721
H      1.497588    1.409939    0.127667
H      1.544978    0.742163   -1.498253
H     -0.477663    1.933081   -0.993299
H     -0.733487    1.057882    0.512617
H     -0.965148    0.092730   -2.409924
H     -2.354944    0.577908   -1.460760
H     -2.479250   -1.643883   -1.706029
H     -0.823335   -2.073284   -1.370585
H     -2.163635   -2.821833    0.369523
H     -1.348590   -1.451249    1.141137
H     -4.419980   -2.702853   -0.420401
H     -4.384124   -1.038704   -1.212546
H     -5.752326   -1.573715    1.415549
H     -6.633671   -1.572700   -0.207545
H     -4.786038    1.346714    1.879229
H     -3.678648   -1.627826    1.680086
H     -5.998566    0.600901   -0.742023
H     -2.790952    0.541532    1.621056
H     -7.457735    1.383728    0.546002
