37

C     -3.716818   -0.202336    0.980881
C     -4.071817   -0.885912   -1.328672
C      2.104240    2.855571   -0.164957
C      4.835306   -1.042476    0.535752
C      4.531549   -2.347640    0.190601
C      3.841807   -0.088994    0.620135
C      3.212594   -2.653293   -0.062464
C      2.515712   -0.394425    0.366135
C      2.219769   -1.713466    0.018841
C      0.208730    0.198592    0.185409
C     -1.083464    0.936900    0.177847
C      1.514673    0.545564    0.446305
C     -1.908104    0.050904   -0.729966
C     -0.064067   -1.131352   -0.161184
C     -3.389559    0.155928   -0.452461
N      0.938644   -2.036635   -0.233081
O     -0.866102    2.145010   -0.494761
O     -3.900378    1.387930   -0.782416
O      1.791333    1.856248    0.788983
O     -1.432669   -1.233244   -0.373676
H     -3.428441    0.590620    1.695966
H     -4.835572   -0.336433    1.011291
H     -3.302675   -1.197860    1.232598
H     -4.243859   -0.476483   -2.347576
H     -4.993986   -1.282702   -0.861322
H     -3.393549   -1.757358   -1.466962
H      2.147540    2.449503   -1.196436
H      3.108851    3.260340    0.092123
H      1.392830    3.703679   -0.112818
H      5.871952   -0.827147    0.728872
H      5.322187   -3.104249    0.123966
H      4.079138    0.936821    0.891202
H      2.947348   -3.665666   -0.334284
H     -1.518041    1.072232    1.167316
H     -1.692785    0.233711   -1.783447
H     -0.940705    1.982591   -1.475771
H     -3.801614    2.015529   -0.033779
