67

C      5.493607   -1.745816    0.963904
C      6.448587    0.132511   -0.087011
C     -4.229079    1.939933    1.167361
C     -2.129762   -2.082873   -2.757927
C      2.633882    1.479667   -1.441973
C      5.339196   -0.602468    0.229091
C     -3.692758    1.266732    0.047107
C     -2.251492   -1.110151   -1.770182
C      6.742569   -2.166213    1.387461
C      7.686562   -0.276768    0.328477
C     -4.802072    1.325267    2.241865
C     -3.116383   -2.986059   -3.091911
C      1.633213    1.962390   -0.418805
C     -3.767233   -0.103554    0.044717
C     -3.437577   -1.028716   -1.060429
C      7.860082   -1.433208    1.073291
C     -4.869649   -0.049181    2.247769
C     -4.296620   -2.894751   -2.381533
C      0.576985    2.710542   -1.156595
C     -4.357250   -0.733070    1.163834
C     -4.460080   -1.948193   -1.396369
C     -0.580408    2.257071    0.895160
C     -0.722092    2.945207   -0.455454
C      3.987733   -0.186536   -0.203765
C     -3.073277    2.173918   -0.902451
C     -1.102033   -0.234172   -1.617214
C     -0.146924    0.833566    0.530418
O      6.879969   -3.323881    2.128710
O      8.835224    0.433322    0.032984
O     -5.311115    2.073113    3.317375
O     -2.931955   -3.940528   -4.093297
O      9.120015   -1.843108    1.491118
O     -5.445346   -0.683159    3.333755
O     -5.303345   -3.794649   -2.704238
O      1.108961    4.015123   -1.429016
O     -4.418479   -2.139137    1.178662
O     -5.676843   -1.937627   -0.758195
O      0.431678    2.885606    1.624513
O      3.010976   -0.874208    0.126244
O     -3.934140    2.921644   -1.518680
O     -0.359965   -0.177028   -2.700923
O      3.802622    0.938015   -0.957531
O      1.250555    0.933763    0.363583
O     -1.744419    2.363398   -1.242572
O     -0.672012    0.495191   -0.635326
H      4.598074   -2.304014    1.197858
H      6.383886    1.040681   -0.662661
H     -4.251174    3.041792    1.212847
H     -1.203856   -2.199712   -3.352394
H      2.154965    0.714882   -2.130823
H      2.919097    2.298638   -2.150908
H      2.224837    2.694374    0.212234
H      0.389983    2.316631   -2.181236
H     -1.449949    2.287164    1.529389
H     -0.901064    4.042395   -0.291448
H     -0.320567    0.192934    1.408270
H      6.085385   -3.875251    2.371274
H      8.759006    1.303233   -0.518515
H     -5.732475    1.632822    4.112807
H     -3.680510   -4.585964   -4.308660
H      9.227749   -2.677460    2.024770
H     -5.554221   -1.662477    3.459049
H     -6.194269   -3.863742   -2.299531
H      1.492365    4.282775   -0.545307
H     -4.822646   -2.623671    1.942681
H     -6.460275   -2.508889   -0.874499
H      0.325550    2.661930    2.582875
