48

C     -4.045543    2.349224   -0.481586
C     -3.207085   -2.375172    2.951367
C     -3.128401    1.913364   -1.550319
C      5.534964   -1.214795    0.919632
C      6.090146    0.027545    0.638169
C      4.181388   -1.395337    0.749256
C      5.280240    1.045361    0.197638
C      0.914114   -1.231399    0.173211
C     -0.549748    1.307829    0.460221
C     -1.149536    0.611396   -2.318707
C     -2.574169   -1.306141   -1.219652
C     -2.129018    1.104941   -1.297441
C      3.395283   -0.367217    0.309583
C      2.048190   -0.280364    0.060003
C     -1.850304    0.573110    0.090598
C      3.920028    0.895173    0.017024
C      0.375047    1.289601   -0.706578
C     -0.218732   -0.994636   -0.755317
C      1.794797    1.009819   -0.370737
C     -1.826263   -1.748433    1.013772
C     -1.573162   -0.917401   -0.153852
N      2.930160    1.709672   -0.392388
N      0.000175    0.166632   -1.597696
O     -3.647482   -0.777069   -1.252060
O     -1.031066   -2.658318    1.329355
O     -2.938337   -1.568479    1.802963
H     -4.667733    3.204750   -0.838482
H     -4.756258    1.537989   -0.231798
H     -3.503130    2.729534    0.410230
H     -2.975286   -3.452788    2.748642
H     -2.705513   -1.996589    3.851698
H     -4.300450   -2.310921    3.125198
H     -3.280162    2.265068   -2.561863
H      6.129553   -2.051758    1.270026
H      7.155164    0.116228    0.788286
H      3.745063   -2.355726    0.965676
H      5.770112    2.005832   -0.009896
H      1.375997   -2.257463    0.061457
H      0.642111   -1.199786    1.270152
H     -0.148116    1.023951    1.423361
H     -0.893371    2.383272    0.569113
H     -0.841210    1.533511   -2.876410
H     -1.569244   -0.076129   -3.048186
H     -2.258756   -2.062907   -1.915504
H     -2.656280    0.755895    0.793158
H      0.302519    2.209817   -1.346391
H     -0.214905   -1.869462   -1.481026
H      3.054208    2.698775   -0.669125
