67

C      5.821391    0.808491    1.024355
C      5.732009    0.577587   -1.319801
C     -4.122972   -2.572258    0.744464
C     -2.084062    2.782110   -1.419666
C      2.997514   -2.146682    1.833217
C      5.298929    0.179411   -0.081534
C     -3.393335   -1.625385   -0.044886
C     -2.213667    1.684369   -0.544740
C      6.757016    1.815941    0.917555
C      6.683486    1.602146   -1.429449
C     -5.165649   -2.266716    1.556560
C     -3.008451    3.190788   -2.350431
C      1.537666   -2.038771    1.571070
C     -3.803380   -0.307704    0.047287
C     -3.354341    0.947421   -0.627640
C      7.210394    2.235684   -0.334196
C     -5.568882   -0.974427    1.641632
C     -4.155522    2.432687   -2.401440
C      1.021183   -2.813758    0.407513
C     -4.889849   -0.039912    0.894628
C     -4.335114    1.361663   -1.586031
C      0.170907   -0.765656   -0.125691
C     -0.251340   -2.255933   -0.027301
C      4.291944   -0.894397    0.083930
C     -2.434773   -2.291050   -0.905511
C     -1.131485    1.689528    0.462472
C     -0.088029   -0.407296    1.313884
O      7.282656    2.449204    2.041245
O      7.108887    1.991216   -2.695520
O     -5.824606   -3.263823    2.302694
O     -2.804182    4.285636   -3.178805
O      8.148069    3.248558   -0.383365
O     -6.634562   -0.646757    2.466278
O     -5.115563    2.837032   -3.342158
O      0.800413   -4.174949    0.749001
O     -5.336997    1.311744    0.983202
O     -5.551887    0.733262   -1.774656
O     -0.403553   -0.078102   -1.112650
O      3.820483   -1.478548   -0.918273
O     -3.030353   -3.070823   -1.805128
O     -0.421507    2.816994    0.588309
O      3.869761   -1.258147    1.295857
O      1.088764   -0.780307    1.896438
O     -1.058445   -2.351984   -1.060153
O     -0.662792    0.784523    1.340187
H      5.472007    0.485156    1.992514
H      5.349382    0.112084   -2.207795
H     -3.860682   -3.649742    0.687247
H     -1.170019    3.405554   -1.414089
H      3.199273   -2.145882    2.967743
H      3.373362   -3.194079    1.572661
H      1.085462   -2.655702    2.477856
H      1.727384   -2.854155   -0.419014
H      1.279669   -0.713546   -0.362847
H     -0.921823   -2.395402    0.918800
H     -0.836113   -1.115704    1.832543
H      7.967139    3.185151    1.951504
H      7.774158    2.703459   -2.872022
H     -6.584631   -3.013844    2.889972
H     -1.941902    4.799864   -3.093158
H      8.522007    3.603843   -1.244863
H     -7.017988    0.257891    2.611414
H     -4.965008    3.623278   -3.929404
H      1.621210   -4.688281    0.545757
H     -6.081052    1.616380    1.533683
H     -5.920484   -0.056053   -1.316408
H     -0.867525   -0.572882   -1.814845
