37

C      3.974127    0.407701   -0.432747
C     -2.421430   -2.697480    0.086058
C     -3.183209    0.234322    0.494358
C      3.382698   -0.978962   -0.509434
C      2.451431   -1.207965    0.679320
C      1.327690   -0.225237    0.705224
C     -1.543167    2.814153   -0.127008
C     -0.552263    1.820609    0.464270
C     -1.537036   -1.495894   -0.207343
C     -1.849836   -0.237380   -0.037653
C      0.456800   -0.267944   -0.507785
C     -1.940215    2.234436   -1.428613
C     -0.190276   -1.577981   -0.726688
C     -0.734809    0.634786   -0.434219
O     -2.889325    2.616370   -2.144552
O      0.313223   -2.588861   -1.261103
O     -1.064101    1.203157   -1.688238
H      3.457224    1.122247   -1.124487
H      3.855483    0.845755    0.587464
H      5.047127    0.431916   -0.667542
H     -2.296051   -3.036725    1.114962
H     -3.461193   -2.429350   -0.087675
H     -2.166560   -3.532652   -0.615072
H     -3.795864   -0.616478    0.805935
H     -3.015166    0.849198    1.416989
H     -3.726629    0.786078   -0.274835
H      4.217273   -1.699778   -0.391643
H      2.880203   -1.162847   -1.466231
H      3.082397   -1.072020    1.581691
H      2.123907   -2.262607    0.685330
H      1.794495    0.794938    0.732690
H      0.783898   -0.332240    1.651758
H     -1.057563    3.795738   -0.356451
H     -2.403116    2.999625    0.549577
H      0.446368    2.263001    0.321607
H     -0.800812    1.585187    1.508639
H      1.034276   -0.016816   -1.414392
