85

C      6.879608    0.523384    0.146912
C     -4.518690   -1.526772   -1.694417
C     -4.398192    5.582439   -0.047750
C      0.041828   -1.071776   -3.723405
C      2.047175   -4.273353    1.386145
C      2.145035    3.229470   -0.631747
C      2.532091    3.001450    1.708675
C     -4.454467    1.478110    0.401990
C      0.762845    3.465783   -0.358720
C      1.134507    3.241828    1.921317
C     -4.447439    2.829401    0.235654
C      4.236758    1.102188   -2.399111
C     -4.202572   -3.647612    1.044936
C      5.575215    0.909829   -1.830749
C     -4.338287   -3.465826   -0.427546
C      4.433568    2.586770    0.184088
C     -3.723339   -0.722093    0.934064
C     -2.197378    1.389311    1.192104
C     -2.196697   -4.494108    2.240589
C      2.115909   -0.057633   -2.249945
C      2.256537   -0.224595    0.580779
C      2.995334    2.999123    0.416097
C     -3.359283    0.712580    0.875605
C      3.199574    0.469903   -1.554654
C     -2.735364   -3.541150    1.407549
C      0.274609    3.464920    0.894481
C      3.256198    0.379817   -0.144526
C      4.514674    1.035166    0.320075
C     -2.866210   -1.595020    0.056489
C     -0.848836   -4.367937    2.457964
C     -3.271301    3.466711    0.559115
C      1.127294   -0.655307   -1.529832
C     -2.157520    2.759617    1.028562
C      1.147409   -0.766347   -0.129824
C     -1.993430   -2.517765    0.820976
C     -0.090053   -3.337802    1.863680
C     -0.605808   -2.373555    1.027524
N      5.612597    0.595383   -0.467388
N     -3.613653   -2.328572   -0.894380
O     -0.271027   -5.318540    3.300394
O     -3.284323    4.868087    0.389201
O      0.083005   -1.150054   -2.342962
O      1.251333   -3.457104    2.259317
O     -1.110988    3.661008    1.256183
O      0.101022   -1.392552    0.443649
H      6.735606    0.549707    1.266136
H      7.482708    1.417842   -0.125040
H      7.424281   -0.431206   -0.020691
H     -4.567027   -1.848261   -2.769305
H     -5.544014   -1.475627   -1.261279
H     -4.121169   -0.498359   -1.733029
H     -4.895516    5.221657   -0.943518
H     -5.089964    5.637394    0.848790
H     -4.084192    6.645327   -0.234743
H      1.006201   -1.540524   -4.096225
H     -0.740572   -1.740884   -4.149314
H      0.046105   -0.051604   -4.160301
H      2.839761   -3.656413    0.919076
H      1.462487   -4.707662    0.556471
H      2.467231   -5.161796    1.928732
H      2.305671    3.280039   -1.748593
H      3.013779    2.870639    2.724172
H     -5.415729    1.000159    0.131038
H      0.237741    3.655695   -1.338184
H      0.934363    3.213369    3.029686
H     -5.318120    3.357932   -0.130350
H      3.983034    2.102819   -2.788165
H      4.239573    0.482871   -3.379764
H     -4.843993   -3.089186    1.692803
H     -4.456431   -4.741513    1.236133
H      6.203099    1.838016   -2.004639
H      6.130500    0.121245   -2.385273
H     -5.447148   -3.253121   -0.596466
H     -4.076829   -4.396210   -0.996980
H      4.886225    2.869396   -0.788044
H      5.212270    2.965352    0.858161
H     -3.868271   -1.135237    1.945275
H     -4.771027   -0.909141    0.517961
H     -1.291438    0.854247    1.637535
H     -2.791454   -5.285887    2.694040
H      2.080577    0.016447   -3.352755
H      2.230078   -0.319687    1.709693
H      4.848192    0.932431    1.355171
H     -2.179847   -0.910251   -0.522611
H      0.693990   -5.346816    3.547240
