36

C      1.144597    2.199169   -1.075953
C     -0.009565    1.620181    1.663980
C     -0.909857   -1.128804    1.875878
C      2.123681   -0.890212   -0.143281
C      1.082551   -1.975992   -0.192661
C     -1.987311    0.707155   -1.263655
C      1.727325    0.069673    0.954520
C     -1.978749    0.262533    0.169190
C     -0.307734   -0.909726   -1.882619
C      0.369611    1.196217   -0.759754
C     -0.539358    0.603672   -1.768897
C     -0.286591   -1.461370   -0.485603
C      0.374637    0.623714    0.606783
C     -0.699169   -0.456300    0.568292
H      1.133766    2.608994   -2.073445
H      1.802733    2.620197   -0.326395
H     -0.434222    2.565305    1.234509
H     -0.724124    1.188020    2.372090
H      0.904071    1.963963    2.229960
H     -1.923066   -0.900486    2.317461
H     -0.146891   -0.906275    2.621296
H     -0.919203   -2.242741    1.721493
H      2.210891   -0.314318   -1.072103
H      3.091039   -1.361668    0.134510
H      1.149937   -2.547394    0.753447
H      1.377804   -2.665873   -1.027424
H     -2.273393    1.766464   -1.402363
H     -2.629783    0.060104   -1.865508
H      1.707117   -0.395895    1.940461
H      2.443165    0.891321    0.951201
H     -2.878069   -0.318838    0.451477
H     -2.018565    1.198950    0.795159
H      0.607062   -1.120242   -2.448182
H     -1.164605   -1.303579   -2.440506
H     -0.427093    1.084752   -2.760808
H     -0.992637   -2.330671   -0.372550
