37

C      3.991768    0.443367   -0.232077
C     -2.549989   -2.767083   -0.311457
C     -3.242811    0.087661   -1.036924
C      3.544463   -1.006619   -0.238679
C      2.309109   -1.121261    0.665763
C      1.267331   -0.223334    0.087139
C     -0.622029    2.986179    0.056436
C     -0.685148    1.644211   -0.653308
C     -1.750826   -1.575491    0.101645
C     -2.068391   -0.333851   -0.224579
C      0.002661   -0.236156    0.873319
C     -1.446241    2.705679    1.268563
C     -0.544996   -1.623584    0.899652
C     -1.067421    0.627136    0.342761
O     -1.848531    3.627707    2.051076
O     -0.108047   -2.652775    1.468000
O     -1.690448    1.358699    1.399882
H      5.078635    0.462462   -0.374344
H      3.691159    0.870065    0.745404
H      3.454437    0.995544   -1.032669
H     -2.864834   -2.697690   -1.362789
H     -1.989900   -3.702302   -0.140335
H     -3.463561   -2.798356    0.320938
H     -3.577922    1.112901   -0.775093
H     -2.961040    0.013040   -2.101942
H     -4.113373   -0.589180   -0.864238
H      3.282368   -1.255549   -1.288295
H      4.341105   -1.684195    0.073715
H      2.597286   -0.910413    1.692387
H      1.997776   -2.198651    0.566912
H      1.668193    0.808565    0.095903
H      1.077520   -0.589725   -0.956252
H      0.392241    3.211471    0.389529
H     -1.065350    3.766847   -0.583975
H      0.245624    1.506041   -1.186071
H     -1.498063    1.708491   -1.429807
H      0.217246    0.030147    1.930622
