37

C      5.395840    1.828980   -0.415359
C     -0.177856   -1.389776   -1.202092
C     -3.745831   -1.399525   -0.601082
C     -1.671346   -1.319140    1.394374
C     -0.215764   -0.951638    1.273699
C     -2.557576   -0.158254    1.157355
C      2.927820    2.041754   -0.496551
C      3.851399   -0.100364   -0.084764
C      1.676637    1.494179   -0.416506
C      2.582521   -0.644633   -0.005630
C      4.034891    1.235916   -0.328763
C      0.080584   -0.431156   -0.087523
C     -3.493286   -0.206119    0.249957
C      1.461241    0.155642   -0.172631
C     -4.332162    0.967799    0.060237
O     -4.158701    1.997702    0.751846
O     -5.342010    0.981937   -0.885324
H      5.797855    2.082568    0.585682
H      6.086361    1.111210   -0.912807
H      5.341643    2.757768   -0.991443
H     -0.623855   -2.346289   -0.909358
H     -0.816083   -0.937622   -2.011868
H      0.807891   -1.563286   -1.724096
H     -3.042146   -1.543504   -1.414720
H     -4.760479   -1.317769   -1.055120
H     -3.804859   -2.297257    0.060224
H     -1.903357   -1.731346    2.414831
H     -1.880332   -2.081467    0.629382
H      0.358568   -1.878187    1.518628
H      0.057306   -0.173667    2.028086
H     -2.437034    0.767659    1.748833
H      3.075110    3.115857   -0.692685
H      4.747553   -0.714443    0.043981
H      0.808777    2.134823   -0.549695
H      2.437803   -1.711209    0.189156
H     -0.619348    0.442389   -0.261048
H     -5.947775    1.780469   -1.012985
