45

C      1.179515    3.534370   -0.317296
C     -3.216940   -1.622001   -1.188617
C     -2.626451   -2.665863    1.017015
C     -1.446795    2.805273   -0.910821
C      0.423865    2.955064    0.609242
C      2.027116   -1.646556   -0.579828
C      3.153230   -0.082084    0.761063
C      3.242819   -2.208270   -0.907588
C      4.375877   -0.637644    0.438821
C     -1.553242    1.602985    1.240905
C     -2.343311    0.409799    0.783690
C     -2.140118   -1.889457   -0.166321
C      1.954254   -0.559324    0.270878
C      4.430912   -1.720469   -0.410098
C      0.666239    0.066408    0.642276
C      0.036525    0.832962   -0.472970
C     -0.657288    2.046479    0.132865
C     -1.414514   -0.623375    0.198738
O      5.662665   -2.279644   -0.734326
O     -0.308751   -0.869474    0.970804
O     -0.896158   -0.080819   -0.977245
H      1.045607    3.377791   -1.371670
H      1.977750    4.202852   -0.018543
H     -3.352726   -2.513522   -1.864175
H     -4.188975   -1.437642   -0.682489
H     -2.915999   -0.762119   -1.816538
H     -3.390662   -3.392280    0.642949
H     -1.764089   -3.217520    1.448074
H     -3.074674   -2.077426    1.810490
H     -1.590469    3.832455   -0.514993
H     -0.880635    2.816677   -1.860877
H     -2.458840    2.380043   -1.070136
H      0.605286    3.150303    1.655669
H      1.096660   -2.035034   -0.974523
H      3.117357    0.767541    1.427852
H      3.305403   -3.064532   -1.577087
H      5.313756   -0.255848    0.828950
H     -2.255343    2.448325    1.462191
H     -1.026157    1.387197    2.192224
H     -3.044711    0.726488   -0.017019
H     -2.937340    0.049457    1.622000
H     -1.380043   -2.543680   -0.686997
H      0.843296    0.681572    1.553672
H      0.746432    1.176554   -1.235317
H      5.659668   -3.066014   -1.354895
