57

C     -0.580919    4.442867    0.592257
C     -0.003143    2.683275   -1.597165
C     -4.505457   -2.669514   -3.096493
C      5.770059   -2.040161   -1.677400
C     -3.369693   -2.228611    2.391843
C      3.350936   -1.799282    3.258183
C     -1.307886   -0.212035   -1.767232
C      2.025439   -0.045119   -1.352278
C     -2.357640   -1.020083   -2.155700
C      3.246445   -0.698677   -1.457189
C     -1.838236   -0.830963    0.453134
C      2.041115   -0.557684    0.938436
C     -1.023771    2.501704    2.064933
C     -0.954432    2.958995    0.648364
C      0.051124    2.174079   -0.201423
C     -1.029644   -0.106069   -0.422365
C      1.394902    0.039812   -0.147200
C     -3.148866   -1.729721   -1.285003
C      3.851453   -1.274430   -0.366786
C     -2.883662   -1.633802    0.053877
C      3.247331   -1.209888    0.861698
C      0.070427    0.734392    0.055093
O     -2.007509    3.318972    2.712568
O     -4.195784   -2.532292   -1.715998
O      5.072274   -1.930650   -0.460521
O     -3.608176   -2.298215    1.021884
O      3.867445   -1.795277    1.954765
H      0.490234    4.605674    0.427865
H     -0.847432    4.861321    1.583135
H     -1.237601    4.974284   -0.133871
H      0.009424    3.836602   -1.469485
H      0.880746    2.531221   -2.224490
H     -0.981443    2.540180   -2.107110
H     -4.468077   -1.716627   -3.643352
H     -3.816328   -3.444556   -3.524421
H     -5.528273   -3.119042   -3.149408
H      6.360154   -1.115306   -1.884043
H      6.499125   -2.884878   -1.660505
H      5.103907   -2.205999   -2.550549
H     -3.762289   -1.218149    2.719191
H     -2.308668   -2.234195    2.689618
H     -3.948140   -2.968752    2.980235
H      2.486838   -2.475050    3.389478
H      4.205751   -2.117418    3.924493
H      3.026638   -0.807051    3.606130
H     -0.731328    0.304970   -2.553209
H      1.568142    0.389222   -2.237073
H     -2.548738   -1.078205   -3.236269
H      3.700031   -0.734409   -2.429614
H     -1.591260   -0.743365    1.526068
H      1.584364   -0.523241    1.920983
H     -0.073825    2.510903    2.614104
H     -1.459952    1.481674    2.178369
H     -1.934229    2.853192    0.169480
H      1.054133    2.571856    0.203567
H     -0.027597    0.667220    1.216215
H     -2.878440    3.016307    2.350183
