52

C      5.505853   -1.329841   -0.709979
C      5.963066   -0.472071    1.664620
C      1.622011    2.222765    0.315961
C     -3.236372    2.227783   -1.462489
C     -2.171118   -2.140710   -0.289952
C      3.349853    0.377961   -0.984029
C     -4.906181   -0.025710    1.130531
C      4.112447    0.387913    0.278352
C      1.892446    0.063186   -0.799357
C     -4.858071    0.868023   -0.082582
C     -0.269860   -0.455544    1.286083
C     -4.005234   -1.209607    1.018387
C     -1.647979   -0.869503    1.737240
C     -1.102222    0.471938   -0.811597
C      5.156434   -0.439247    0.410759
C      1.134322    1.044969   -0.021321
C     -3.465615    1.043823   -0.583681
C     -0.256224    0.747064    0.415719
C     -2.474472    0.240320   -0.290226
C     -2.623927   -0.948920    0.573230
H      4.713194   -2.056814   -0.976619
H      5.748349   -0.713913   -1.610658
H      6.425188   -1.885535   -0.447669
H      5.301208   -0.559561    2.560173
H      6.571417    0.426778    1.802902
H      6.605024   -1.362834    1.662163
H      1.068195    2.945796    0.889997
H      2.601419    2.512512    0.000333
H     -4.049956    2.976634   -1.377935
H     -2.303646    2.763953   -1.197217
H     -3.243545    1.904357   -2.539038
H     -2.715815   -3.019495    0.064139
H     -2.444048   -1.955665   -1.367051
H     -1.082591   -2.322879   -0.202833
H      3.397088    1.378298   -1.489788
H      3.741862   -0.416949   -1.675248
H     -5.951676   -0.391366    1.224359
H     -4.694404    0.538927    2.061241
H      3.881083    1.018326    1.119366
H      1.798918   -0.996562   -0.411462
H      1.476080   -0.025662   -1.850649
H     -5.521838    0.524373   -0.900773
H     -5.217307    1.871415    0.223529
H      0.297879   -1.287099    0.858318
H      0.283416   -0.178632    2.232705
H     -4.451498   -2.018785    0.370541
H     -3.963074   -1.676864    2.041953
H     -1.564035   -1.898597    2.144122
H     -2.021187   -0.228835    2.554458
H     -1.027518    1.223151   -1.585811
H     -0.704541   -0.488967   -1.245642
H     -0.672796    1.595903    1.007763
