44

C      3.954894    1.214744   -0.439768
C     -3.597197    0.977321   -0.037085
C      1.454080   -2.277035   -0.181625
C     -1.330959    1.449410    1.109960
C     -0.331935   -0.977571    1.799227
C      3.086514    0.013210   -0.778243
C     -2.736533   -1.291965   -0.084190
C     -1.377481   -1.905946   -0.186049
C     -0.324219    1.272384   -1.097287
C      1.102280    1.462403   -0.664618
C     -2.467845    0.131138   -0.591863
C      0.829692   -0.943014   -0.424677
C     -1.129528    0.504039   -0.054146
C     -0.474725   -0.778201    0.324420
C      1.744888    0.218808   -0.146646
O      1.941949    0.260380    1.242532
H      4.796638    1.334351   -1.138917
H      4.303165    1.050681    0.613440
H      3.300724    2.100871   -0.402894
H     -3.651850    1.970569   -0.485407
H     -4.546971    0.448306   -0.337877
H     -3.599774    0.975327    1.064025
H      2.034156   -2.564115   -1.095026
H      2.115909   -2.319546    0.682838
H      0.621941   -3.026832   -0.129325
H     -0.375984    1.970572    1.335296
H     -1.780075    0.982457    1.987060
H     -2.020900    2.259000    0.729180
H      0.348041   -1.829512    1.975520
H     -0.079506   -0.078224    2.367019
H     -1.337392   -1.314145    2.183860
H      3.616227   -0.873282   -0.433151
H      3.042934   -0.028939   -1.887114
H     -3.496046   -1.805702   -0.680243
H     -3.106874   -1.261827    0.965669
H     -1.149440   -2.145228   -1.225163
H     -1.328920   -2.765199    0.503526
H     -0.790803    2.296619   -1.126212
H     -0.395177    0.825719   -2.090756
H      1.233137    2.260869    0.076266
H      1.665310    1.798693   -1.584033
H     -2.521211    0.140750   -1.688957
H      0.563862   -0.890202   -1.516575
H      2.195000    1.157861    1.548010
