48

C      3.245790    0.895363   -2.555727
C      1.223087   -4.034963    0.189539
C      4.517079    2.586100    0.505303
C     -2.811793   -3.677984    1.179334
C     -1.521977    3.197110   -0.838246
C      4.268259    2.260585   -0.807864
C     -1.489870   -3.738636    0.791084
C     -2.848274    3.265987   -0.450486
C     -3.457633   -2.465498    1.087586
C     -0.848394    1.996788   -0.761398
C      3.969987    1.841568    1.500428
C      3.467240    1.183644   -1.124566
C      0.591542   -2.691979   -0.096123
C     -0.808823   -2.615677    0.316459
C     -3.486181    2.146074    0.006836
C     -2.803632   -1.344991    0.621753
C     -1.467692    0.843668   -0.301848
C      3.161182    0.754198    1.170110
C      2.881429    0.386908   -0.123889
C     -1.475050   -1.410817    0.232683
C     -2.792989    0.968554    0.072400
C     -4.904411    2.216903    0.420397
C      2.047008   -0.734211   -0.512009
N     -0.813962   -0.331282   -0.223611
N     -3.413187   -0.145470    0.524276
O      2.638328    0.041778    2.222820
O     -5.465798    1.168369    0.829241
O     -5.618543    3.380632    0.371695
O      1.848272   -0.992399   -1.754741
O      1.397767   -1.615127    0.319861
H      3.800082    1.656969   -3.182451
H      2.153057    1.044464   -2.782403
H      3.629196   -0.079936   -2.888985
H      2.315492   -4.026297    0.088709
H      0.987747   -4.284138    1.254612
H      0.699527   -4.782302   -0.431700
H      5.153442    3.441083    0.775351
H     -3.272402   -4.572982    1.532376
H     -1.003494    4.091843   -1.206609
H      4.712984    2.865632   -1.600792
H     -0.960274   -4.702284    0.857908
H     -3.373774    4.212589   -0.512701
H     -4.476635   -2.383175    1.378782
H      0.186986    1.990489   -1.075292
H      4.156227    2.085045    2.554121
H      0.596337   -2.642535   -1.229656
H      2.057048   -0.741851    2.201431
H     -6.590305    3.492190    0.616917
