37

C      0.548883    3.153341    0.168425
C     -0.035769    1.387214   -2.814854
C      0.468294    1.123297   -1.408739
C      1.968377   -2.411217    2.247392
C      0.815962   -3.115279    2.011437
C     -1.360944    0.610908   -2.990128
C      1.174655    1.009561    1.035762
C      0.709881    1.673514   -0.280737
C      0.967332   -0.364733    1.333659
C      2.027835   -1.094587    1.918283
C     -0.236144   -2.461165    1.450292
C     -0.173491   -1.092949    1.108422
C     -1.423896   -0.566718    0.500055
C     -1.471975   -0.879721   -0.990400
C     -2.137030    1.324414   -0.615197
C     -1.919300    0.252504   -1.628659
O      3.206391   -0.427034    2.173919
O     -1.401737   -3.190967    1.216568
O     -2.670023    2.444031   -0.821263
O     -1.619566    0.794746    0.580623
O     -2.759750   -0.859092   -1.566408
H      0.232263    3.900857   -0.466895
H     -0.199328    3.164534    1.031251
H      1.489817    3.494473    0.669663
H     -0.191940    2.367084   -3.176079
H      0.653330    0.912146   -3.588214
H      0.699161   -0.014067   -1.654957
H      2.808099   -2.909771    2.689234
H      0.740839   -4.189525    2.269659
H     -1.221098   -0.318397   -3.539083
H     -2.035747    1.268506   -3.540559
H      2.254356    1.258968    1.185998
H      0.742325    1.643103    1.900016
H     -2.307099   -1.125931    0.918115
H     -0.876305   -1.738013   -1.360269
H      4.008667   -0.866605    2.586470
H     -1.475324   -4.157430    1.447196
