59

C     -1.867745   -1.449803   -0.265958
C     -6.540893   -0.605845    1.407954
C     -7.059465    0.740572   -0.605799
C      1.048702    0.977784   -0.841186
C      0.155205   -0.619652    1.626304
C     -0.900305    0.254533    1.131788
C     -2.814133    0.974841   -0.142840
C     -4.244040    0.799041    0.178423
C      1.547771   -0.120704    1.375176
C      4.295041   -0.552511    0.363751
C      6.583053   -0.323455   -0.850206
C      6.468059    0.626092    1.128039
C     -1.864844   -0.069322    0.256452
C      5.740464   -0.100264    0.210372
C     -4.879906   -0.394315   -0.452518
C      3.387031    0.486017   -0.180877
C      7.813705    0.249634   -0.605668
C     -6.363502   -0.487863   -0.069717
C      1.929511    0.021469   -0.049975
N      7.697250    0.823735    0.624660
N      8.969157    0.264446   -1.419936
O     -4.782246   -0.287505   -1.843098
O      3.578192    0.584687   -1.587100
O     -6.934879   -1.608556   -0.668652
O      1.802391   -1.237653   -0.678883
O      8.956807   -0.348713   -2.634145
O      9.987618    0.834854   -1.025760
H     -0.827935   -1.825433   -0.457796
H     -2.335722   -2.162323    0.414022
H     -2.425100   -1.470244   -1.248583
H     -5.818009   -1.345677    1.815398
H     -7.554229   -1.030356    1.612919
H     -6.484996    0.359986    1.943710
H     -6.919824    1.585065    0.100109
H     -6.629548    0.963801   -1.607841
H     -8.139540    0.479054   -0.703558
H      0.338502    0.407617   -1.460432
H      0.583878    1.710927   -0.191299
H      1.731211    1.482175   -1.589347
H      0.070294   -1.690422    1.297243
H      0.040624   -0.613384    2.767054
H     -0.899455    1.286915    1.547119
H     -2.670962    1.071287   -1.276321
H     -2.432784    1.965681    0.248380
H     -4.782560    1.696139   -0.268756
H     -4.466501    0.863166    1.271878
H      2.275070   -0.869818    1.823294
H      1.726520    0.845541    1.931060
H      4.196254   -1.492276   -0.173000
H      4.120653   -0.680751    1.457483
H      6.318422   -0.868121   -1.743507
H      6.153050    0.993887    2.091799
H     -4.457030   -1.359294   -0.138617
H      3.508695    1.491271    0.221231
H      8.489442    1.337502    1.071055
H     -4.624870    0.644710   -2.124597
H      4.409537    1.124181   -1.687216
H     -6.258116   -2.036165   -1.245746
H      2.057028   -1.974431   -0.077735
