98

C      6.050926   -2.469233   -1.654955
C     -4.053888   -1.854118   -3.517801
C      4.347969    2.376429   -1.652619
C     -2.904865    4.352999   -0.009705
C      4.598349   -2.049885   -1.553907
C     -4.480765   -1.037054   -2.359124
C     -1.423326    1.124292    3.868375
C     -1.108118    2.456845    3.787876
C      3.743593   -3.652046    0.664331
C     -4.070300   -2.732458   -0.033879
C     -2.049856    0.520837    2.809607
C     -1.400687    3.211094    2.673059
C     -0.221088    2.820440   -1.287171
C      1.145161    2.926970   -1.384808
C      4.988934    0.753951    0.886186
C      4.603213   -2.457703    0.893379
C     -2.976400   -2.136421   -0.865365
C      5.319230   -0.339166   -0.052579
C     -2.340147    0.071121   -2.010205
C     -2.708097    1.579131   -1.820120
C      2.261233   -0.194949    2.019506
C     -4.393404    1.744013    0.904822
C      2.316246   -3.329541    0.354186
C     -4.886632   -1.796602    0.812467
C      1.736490   -1.593229    1.810420
C     -4.871995    0.491496    1.658152
C      0.062404    0.938982    0.087466
C     -0.797345    1.784164   -0.517321
C     -2.375178    1.203178    1.665737
C      1.441709    1.029094    0.003405
C      1.992383    2.044596   -0.748815
C     -2.042313    2.581354    1.590873
C      3.634706    1.254733    0.626225
C      2.878310   -1.019704   -0.136296
C     -3.784615   -0.031317   -0.144873
C      4.296421   -1.413266   -0.179999
C     -3.359028   -0.797910   -1.324071
C      2.537298    0.226615    0.595576
C     -3.054109    1.040753    0.417085
C     -2.258476    1.833925   -0.474177
N      3.429976    1.911116   -0.644404
N     -2.460417    3.043602    0.285430
N      1.970921   -1.966703    0.454320
N     -4.154613   -0.656063    1.070181
H      6.204538   -2.711494   -2.748315
H      6.240517   -3.420720   -1.132038
H      6.769963   -1.682214   -1.430517
H     -4.430369   -1.447822   -4.504778
H     -2.960336   -2.048741   -3.565587
H     -4.523706   -2.856957   -3.436612
H      3.945737    3.337277   -2.089686
H      4.390455    1.626801   -2.487593
H      5.359018    2.601697   -1.231951
H     -3.250374    4.878829    0.910183
H     -3.708390    4.279298   -0.768001
H     -2.049755    4.984028   -0.384157
H      3.986135   -2.923788   -1.745497
H      4.389155   -1.289040   -2.334362
H     -4.732078   -0.018386   -2.728803
H     -5.385100   -1.466316   -1.919201
H     -1.185669    0.529311    4.760060
H     -0.617563    2.922655    4.618153
H      4.215789   -4.259508   -0.169573
H      3.847198   -4.322397    1.568180
H     -4.716766   -3.428831   -0.627975
H     -3.556432   -3.435873    0.691315
H     -2.312507   -0.526097    2.844678
H     -1.159273    4.267418    2.607479
H     -0.818575    3.545584   -1.818209
H      1.600899    3.723765   -1.975798
H      5.062348    0.462962    1.952583
H      5.703969    1.598555    0.706986
H      4.468193   -2.011391    1.874433
H      5.680428   -2.719230    0.738068
H     -2.015191   -2.078861   -0.310341
H     -2.788170   -2.866157   -1.694107
H      6.263428   -0.820301    0.321290
H      5.563837    0.133462   -1.050082
H     -2.256951   -0.056967   -3.081618
H     -1.329689   -0.084266   -1.590512
H     -2.217002    2.149703   -2.608861
H     -3.801529    1.642299   -2.006412
H      1.454180    0.463776    2.398256
H      3.156819   -0.155270    2.655242
H     -5.005572    1.967636    0.034487
H     -4.220620    2.604207    1.503637
H      1.691340   -3.900284    1.082173
H      1.987564   -3.722379   -0.653006
H     -5.133235   -2.296419    1.801273
H     -5.890790   -1.566707    0.395713
H      2.186403   -2.336852    2.518825
H      0.634256   -1.618421    1.974033
H     -5.976419    0.346692    1.496148
H     -4.657527    0.605288    2.731674
H     -0.357430    0.145414    0.652572
H      3.349599    1.982530    1.441805
H      2.525854   -0.872386   -1.198474
H     -4.800416    0.350526   -0.553647
