45

C      1.442153    4.080637    0.446611
C      0.154412    3.986658    0.342738
C      4.785774   -0.327645    0.291358
C      4.311200   -1.705892    0.130691
C      2.344396    2.960244    0.409015
C     -0.442094    2.634136    0.172986
C      3.967152    0.707924    0.324230
C      2.291202   -3.039503   -0.138665
C      0.947574   -3.223768   -0.254304
C     -1.230302   -2.269740   -0.328556
C      2.849073   -1.762240    0.017047
C      0.123090   -2.103274   -0.214678
C      1.686729    1.643072    0.239068
C      2.527779    0.555163    0.202853
C      0.292077    1.552902    0.127065
C     -2.067576   -1.197457   -0.293879
C      1.973319   -0.681676    0.049323
C      0.597991   -0.819450   -0.064596
C     -0.271402    0.297093   -0.028788
C     -1.619542    0.121079   -0.144018
C     -3.546262   -1.519214   -0.406217
C     -4.137245   -0.665823    0.709447
C     -2.618160    1.175506   -0.143536
C     -4.023180    0.729152    0.237127
O     -3.790890   -2.838636   -0.140085
O     -5.477612   -0.967438    0.858413
O     -3.302992    1.578001    0.991190
H      1.848650    5.102639    0.571698
H     -0.542521    4.805954    0.367392
H      5.861074   -0.107852    0.391710
H      4.748068   -2.202753   -0.769288
H      4.571225   -2.294165    1.058008
H      3.051532    3.101582   -0.460656
H      2.964126    2.974474    1.346704
H     -1.479926    2.618358    0.093768
H      4.376965    1.709358    0.445755
H      2.935526   -3.901458   -0.168462
H      0.467378   -4.190830   -0.376408
H     -1.652054   -3.274811   -0.449393
H     -3.963852   -1.145920   -1.354455
H     -3.585987   -0.896422    1.632954
H     -2.776085    1.752887   -1.132819
H     -4.894796    1.187592   -0.272453
H     -3.757394   -3.445754   -0.897426
H     -5.938590   -0.692687    0.025713
