98

C      4.524978   -0.896340    3.269456
C     -4.123881   -3.293799    2.315122
C      3.252915    1.868363   -3.886033
C     -1.698268    3.371059    1.934099
C      4.582541    0.343806    2.409819
C     -2.877017   -2.629150    1.942303
C     -4.754409    2.922504   -2.372476
C     -4.174136    4.073871   -1.881601
C      5.841752   -2.291476    0.774656
C     -4.639656   -2.548838   -0.845136
C     -4.442173    1.744852   -1.738723
C     -3.311025    4.070973   -0.804895
C     -0.566414    1.936723   -1.470712
C      0.533749    2.006643   -2.313612
C      4.915669    1.194757   -1.272571
C      5.965680   -0.808810    0.802599
C     -3.185965   -2.494954   -0.549997
C      4.885362    1.297807    0.220146
C     -1.413437   -1.193371    0.737802
C     -1.400024    0.105757    1.581720
C      2.539362   -1.649705   -1.508110
C     -4.074371    1.366235    1.427743
C      4.696180   -2.625587   -0.168662
C     -5.530198   -1.534915   -0.169613
C      2.384219   -2.559383   -0.337256
C     -5.347769    0.735918    0.762445
C      0.538353    0.461401   -0.082153
C     -0.635597    1.186921   -0.334580
C     -3.601873    1.647877   -0.666316
C      1.659851    0.484359   -0.884030
C      1.656144    1.268104   -2.005179
C     -3.003790    2.836293   -0.172190
C      3.816584    0.370953   -1.819775
C      3.452749   -0.682888    0.452276
C     -3.649851   -0.563006    0.697834
C      4.708894   -0.033414    0.918987
C     -2.857543   -1.774925    0.698965
C      2.949366   -0.307500   -0.857898
C     -3.103231    0.734029    0.331160
C     -1.734280    1.124678    0.551265
N      2.948176    1.196058   -2.640864
N     -2.091753    2.483084    0.888583
N      3.512919   -2.154964    0.487256
N     -4.841371   -0.370171   -0.045617
H      5.540508   -1.222795    3.520046
H      4.048502   -0.613699    4.253646
H      3.870550   -1.655449    2.843827
H     -4.803145   -2.533698    2.814061
H     -3.899718   -4.007848    3.161270
H     -4.646285   -3.882798    1.567385
H      3.442483    2.945011   -3.596533
H      4.194407    1.515322   -4.309314
H      2.450650    1.860429   -4.618326
H     -1.526401    4.423944    1.546260
H     -0.701906    3.067918    2.325658
H     -2.457542    3.463768    2.707285
H      3.647521    0.909502    2.575314
H      5.469605    0.949794    2.665641
H     -2.557102   -1.977652    2.794104
H     -2.057559   -3.408166    1.914706
H     -5.433578    2.951033   -3.227826
H     -4.429115    4.996165   -2.384523
H      5.642403   -2.791600    1.719014
H      6.749094   -2.722582    0.292371
H     -5.066892   -3.581226   -0.779589
H     -4.744551   -2.334392   -1.959055
H     -4.881317    0.832668   -2.095809
H     -2.858332    4.974678   -0.421558
H     -1.393934    2.500332   -1.777953
H      0.526907    2.627758   -3.204080
H      4.879092    2.245801   -1.658631
H      5.920800    0.827038   -1.642770
H      6.680769   -0.572662    1.647236
H      6.558169   -0.517991   -0.115378
H     -2.628975   -1.957122   -1.380648
H     -2.753921   -3.522450   -0.606451
H      4.095896    2.025891    0.501324
H      5.904481    1.674777    0.528173
H     -0.734008   -1.935429    1.163696
H     -1.228153   -1.049556   -0.317971
H     -2.188494   -0.075065    2.355739
H     -0.519303    0.243780    2.181967
H      3.279467   -1.965529   -2.260206
H      1.576385   -1.560911   -2.050295
H     -4.107019    2.416719    1.431927
H     -3.874781    0.913566    2.382559
H      4.929099   -2.113617   -1.113046
H      4.597373   -3.725786   -0.305436
H     -6.419521   -1.376665   -0.876631
H     -6.038895   -1.924097    0.742883
H      2.510952   -3.616451   -0.648106
H      1.404608   -2.368596    0.137924
H     -5.939533    0.342817    1.609360
H     -5.885769    1.494644    0.209064
H      0.691559   -0.168964    0.780955
H      4.274275   -0.349354   -2.566909
H      2.661162   -0.455025    1.213695
H     -4.078380   -0.636010    1.778716
