33

C      4.489070    0.024970    0.974377
C      1.570879   -0.699546   -1.073502
C      3.077984   -0.506106   -0.960027
C      0.740924   -1.514511   -0.561898
C     -2.447876    1.478592    0.545374
C     -0.052361    1.163581    0.549613
C     -4.087523   -0.010022   -0.208447
C      3.202140    0.436655    0.297337
C     -1.389676    0.597003    0.244448
C     -3.772659    1.207457    0.334552
C     -0.740608   -1.672355   -0.674546
C     -3.078579   -0.890661   -0.512242
C      0.871140    0.361525    1.342792
C     -1.715915   -0.619420   -0.298215
O     -4.804896    2.080609    0.633843
O     -1.239924   -2.754418   -1.106581
O     -3.439815   -2.109829   -1.059523
O      0.302714   -0.260296    2.320378
O      2.163175    0.227592    1.157573
H      5.295873   -0.213019    0.266795
H      4.223337   -0.866667    1.614822
H      4.763382    0.818976    1.699531
H      1.372247    0.157215   -1.815608
H      3.735110   -1.299734   -0.814448
H      3.468054    0.108942   -1.802200
H      1.000212   -2.400845    0.147822
H     -2.244256    2.468674    0.980375
H      0.387415    1.679129   -0.342524
H     -0.193196    2.099899    1.236118
H     -5.125021   -0.286365   -0.401197
H      3.314224    1.468456   -0.082027
H     -5.237135    2.046391    1.561372
H     -4.408437   -2.321870   -1.219956
