69

C     -2.820890   -3.015210    0.224430
C     -3.015806    1.416814   -3.077903
C      4.344270    1.572581    0.317434
C      4.401480   -0.764623    0.917360
C      1.924108   -2.108178   -0.398331
C     -0.609106   -0.801458    2.107168
C     -3.889721   -0.607836    1.121134
C     -4.256849    3.160647    1.903370
C      1.886108    0.553850    1.526179
C      3.200327   -0.642762   -2.399019
C      1.756834   -0.437265   -2.086637
C      0.498204    1.215768    1.411578
C     -0.693830   -1.892710   -0.163618
C     -1.995540   -1.787124    0.068349
C     -2.682000    0.861550   -1.720639
C      2.301920    0.339289    0.088114
C      0.025659   -0.592331   -0.301511
C      4.176822   -0.048585   -1.477125
C     -3.250982   -0.172161   -1.157051
C     -1.675317    1.368973   -0.797011
C     -2.411471    1.644308    1.419206
C      3.773567    0.186933   -0.071965
C      1.456152   -0.696755   -0.592107
C     -0.423321    0.167206    0.932364
C     -2.705801   -0.479356    0.188288
C     -1.815906    0.673039    0.535241
O      4.727853    1.110251   -2.079684
O     -4.279583   -0.883076   -1.820239
O     -0.814662    2.252718   -1.059174
O     -1.898264    2.009872    2.476026
O     -3.623788    2.204396    1.077334
H     -3.850845   -2.872422   -0.157242
H     -2.815318   -3.389232    1.278088
H     -2.396718   -3.860259   -0.387787
H     -3.178655    0.626509   -3.818759
H     -3.991808    1.940162   -2.942364
H     -2.215302    2.070946   -3.430146
H      5.389346    1.565506   -0.069759
H      4.464976    1.600030    1.440309
H      3.726765    2.381587   -0.067716
H      5.069045   -1.516142    0.436957
H      5.041108   -0.268930    1.680902
H      3.588285   -1.252502    1.529898
H      3.026203   -2.234880   -0.575227
H      1.615199   -2.598772    0.512868
H      1.480307   -2.695360   -1.258746
H     -0.115718   -0.445005    3.033637
H     -0.202904   -1.795144    1.879234
H     -1.676963   -0.931320    2.356651
H     -4.860573   -0.445822    0.610301
H     -3.938188   -1.658906    1.531244
H     -3.853249    0.059433    1.980224
H     -3.528963    3.786703    2.447059
H     -4.969318    2.680030    2.578120
H     -4.850006    3.853822    1.247402
H      2.527970    1.293148    1.999322
H      1.779031   -0.394960    2.082846
H      3.358781   -0.243615   -3.430131
H      3.357940   -1.755997   -2.525320
H      1.157412   -1.097462   -2.729603
H      1.478520    0.613793   -2.309711
H      0.565413    2.123880    0.823179
H      0.270902    1.418450    2.501709
H     -0.254298   -2.865505   -0.234952
H      2.059930    1.314229   -0.415579
H     -0.451840   -0.158522   -1.238616
H      5.060775   -0.758434   -1.434881
H      5.695098    1.140929   -2.040477
H     -5.172806   -1.038735   -1.375032
