62

C     -0.941060   -1.257180    2.522354
C     -5.470828   -1.690944   -0.848888
C     -7.241521   -0.315533    0.066550
C      3.080363    1.418654   -1.123716
C     -5.450999    1.904940   -0.545256
C      0.874040   -1.322945    0.320127
C     -0.622321   -1.429989    0.111165
C     -2.928790   -1.507095    0.894848
C     -3.648982   -0.306536    1.393185
C      1.338045   -0.121326   -0.413840
C      5.071465   -0.898891   -0.372812
C      6.010239    1.402158   -0.041979
C      6.627052    0.434504   -1.940800
C     -1.444444   -1.398323    1.132326
C      5.867296    0.239573   -0.787023
C     -5.120029   -0.303830    1.236658
C      3.661293   -0.978335   -0.792435
C      6.842332    2.275367   -0.741888
C     -5.685177   -0.397073   -0.126778
C      2.819795    0.170077   -0.318849
N      7.196439    1.644501   -1.896361
N      7.245396    3.565313   -0.340100
O     -5.654203    0.853104    1.867414
O      3.428879   -1.307057   -2.117149
O      3.126874    0.474410    1.024224
O      8.065709    4.298300   -1.139339
O      6.854307    4.027142    0.734169
O     -5.344891    0.625359   -0.978349
H     -0.388226   -0.284826    2.576013
H     -0.210563   -2.038492    2.799170
H     -1.783650   -1.237368    3.235409
H     -6.445226   -1.949579   -1.369813
H     -5.261541   -2.559475   -0.225552
H     -4.769924   -1.582254   -1.732779
H     -7.603659   -1.335120    0.236585
H     -7.702221    0.110534   -0.829299
H     -7.453183    0.288113    0.970032
H      2.145391    1.642380   -1.713531
H      3.321428    2.304135   -0.515581
H      3.833870    1.182926   -1.902422
H     -5.157840    2.555389   -1.441015
H     -4.791480    2.194384    0.307328
H     -6.503554    2.136295   -0.298672
H      1.135414   -1.384354    1.371837
H      1.270843   -2.259390   -0.173043
H     -1.030743   -1.534297   -0.887519
H     -3.046788   -1.743873   -0.163125
H     -3.228157   -2.436979    1.457265
H     -3.454325   -0.270210    2.510451
H     -3.152599    0.615340    1.014464
H      0.820162    0.768437    0.016725
H      1.043996   -0.176327   -1.464230
H      5.087558   -0.953404    0.756812
H      5.619253   -1.850705   -0.657490
H      5.596275    1.673364    0.909643
H      6.684823   -0.331803   -2.696023
H     -5.520354   -1.144549    1.879117
H      3.235903   -1.879081   -0.226886
H      7.812694    2.051785   -2.619308
H     -5.420195    0.765849    2.819115
H      3.469366   -2.295803   -2.275658
H      3.290977   -0.333321    1.554520
