67

C      7.548213   -1.237678   -1.585868
C      6.966447    0.817977   -0.349015
C     -0.908973   -1.973067    1.394404
C     -0.878838   -1.325368   -0.956138
C     -6.062561   -0.269861   -1.136376
C     -5.522176    0.361332   -2.372777
C      1.751829    0.144859   -1.254054
C      3.064456   -0.093650   -1.671810
C     -5.760537    0.528067    0.112741
C      6.563657   -1.337879    0.649810
C     -4.110040    0.813332   -2.284760
C      5.671608   -1.462197    1.621352
C     -3.491944   -0.447767    0.234347
C     -0.480419    1.605334    0.617851
C     -2.451005    1.865408   -0.911487
C      1.364336    0.039768    0.064304
C      4.005142   -0.442573   -0.758422
C     -2.177807   -0.016517    0.774788
C      2.315832   -0.313802    0.994987
C      3.623861   -0.548960    0.560883
C     -4.013935    1.766183    1.266609
C      0.452439   -0.055073    2.199820
C      6.557294   -0.613499   -0.638488
C     -0.976911   -0.772311    0.421339
C     -1.921372    1.400156    0.423378
C     -4.309062    0.854540    0.129837
C      0.119053    0.222048    0.781011
N      1.690988   -0.350700    2.266814
N     -2.766151    2.163416    1.378937
N     -3.824083    1.495303   -1.067380
O     -5.003631    2.166410    2.148694
O     -0.407593   -0.011466    3.301377
O      4.391892   -0.886993    1.669375
O      5.280832   -0.658438   -1.274078
H      7.022348   -1.984892   -2.193492
H      8.325890   -1.745281   -0.959459
H      8.033341   -0.448531   -2.221811
H      7.470915    1.302382   -1.197862
H      7.689958    0.807250    0.493118
H      6.099537    1.440505   -0.023322
H     -1.409527   -2.805899    0.860042
H      0.118679   -2.267177    1.601567
H     -1.533469   -1.785436    2.292846
H     -1.516286   -2.225913   -1.110907
H     -1.075701   -0.540564   -1.704455
H      0.154376   -1.694017   -1.136557
H     -5.784794   -1.336655   -1.012324
H     -7.188027   -0.273771   -1.229454
H     -6.155336    1.251807   -2.606777
H     -5.593200   -0.398740   -3.194714
H      1.073707    0.418998   -2.048695
H      3.349770   -0.005816   -2.714295
H     -5.982017   -0.125944    0.972106
H     -6.363465    1.442854    0.156946
H      7.485469   -1.873877    0.832555
H     -3.372176    0.003797   -2.528983
H     -3.956286    1.565794   -3.115655
H      5.973360   -2.076590    2.465032
H     -3.485442   -0.943139   -0.728356
H     -4.055290   -1.080933    0.951407
H     -0.299475    2.142357    1.565188
H     -0.035710    2.157662   -0.239682
H     -2.477608    3.001086   -0.819560
H     -1.800794    1.695106   -1.763828
H     -2.278095   -0.069249    1.906588
H     -4.769849    2.797000    2.931854
H      0.034356    0.229496    4.199399
