33

C      4.510635    0.866283   -0.637676
C      1.604333   -1.323507    0.171671
C      3.102077   -1.073394    0.150166
C      0.736356   -1.530034   -0.744741
C     -2.446511    1.355485    0.658919
C     -0.070360    1.084953    0.534606
C     -4.098045   -0.203905    0.034415
C      3.179953    0.483131   -0.092560
C     -1.393190    0.492295    0.270183
C     -3.775742    1.023711    0.547405
C     -0.735789   -1.755553   -0.712629
C     -3.087914   -1.039540   -0.342173
C      0.787281    1.122975   -0.650939
C     -1.722872   -0.734345   -0.243323
O     -4.796988    1.881303    0.932992
O     -1.272877   -2.835898   -1.088752
O     -3.447784   -2.285607   -0.862056
O      0.134282    1.445746   -1.728887
O      2.092047    0.893546   -0.826953
H      4.904595   -0.026934   -1.205643
H      4.492853    1.690305   -1.351237
H      5.280203    1.039627    0.170564
H      1.447924   -1.287506    1.317143
H      3.741051   -1.544678   -0.525693
H      3.554369   -1.180167    1.169742
H      0.970537   -1.619217   -1.883890
H     -2.269691    2.337600    1.073035
H     -0.195415    2.219585    0.773606
H      0.383168    0.758160    1.482814
H     -5.153628   -0.462669   -0.051815
H      3.083076    0.908282    0.923771
H     -5.116361    1.811743    1.893844
H     -4.421573   -2.511777   -0.935882
