67

C      7.844537    0.486960   -1.663573
C      6.426299    1.650892   -0.037335
C     -0.162733    1.576015    1.590443
C     -0.581582    1.680772   -0.780719
C     -6.679760   -0.430434   -0.068418
C     -6.484545   -0.297640   -1.560798
C      1.874793    0.054292   -1.648143
C      3.215581    0.143339   -2.001217
C     -5.640288    0.340729    0.718838
C      6.864218   -0.684730    0.286617
C     -4.997703   -0.132471   -1.903989
C      6.006630   -1.136766    1.177212
C     -3.220521    0.890859    0.320631
C     -0.650002   -1.590760   -0.216196
C     -2.879060   -1.087116   -1.252091
C      1.461052   -0.279728   -0.367104
C      4.182634   -0.107519   -1.051226
C     -1.967385    0.200188    0.720534
C      2.464857   -0.521848    0.548584
C      3.802221   -0.443900    0.237664
C     -3.876953   -1.306340    1.335264
C      0.566991   -0.820038    1.702425
C      6.642623    0.335505   -0.757960
C     -0.676526    0.775278    0.379449
C     -2.027136   -1.147780    0.001578
C     -4.291977   -0.215958    0.398627
C      0.195542   -0.452549    0.305263
N      1.853155   -0.845243    1.787423
N     -2.815450   -1.976604    0.934037
N     -4.259331   -0.852121   -0.921762
O     -4.542496   -1.588529    2.513966
O     -0.251197   -1.103458    2.789191
O      4.662531   -0.730580    1.322224
O      5.488871    0.003808   -1.489028
H      8.745380    0.467531   -1.001344
H      7.800641    1.486207   -2.111933
H      7.954209   -0.333509   -2.372585
H      5.952947    1.449433    0.963988
H      5.709401    2.294665   -0.584494
H      7.385812    2.135805    0.163703
H      0.926315    1.576736    1.646312
H     -0.526434    2.627392    1.455244
H     -0.650261    1.211380    2.523195
H      0.495982    2.009525   -0.866208
H     -1.136429    2.612924   -0.543318
H     -0.882129    1.315874   -1.753232
H     -7.693086   -0.081400    0.220137
H     -6.606688   -1.481889    0.246725
H     -7.044099    0.523842   -2.010541
H     -6.799863   -1.289311   -1.997534
H      1.157034    0.259702   -2.429212
H      3.521456    0.404781   -3.003616
H     -5.919765    0.241402    1.788323
H     -5.654792    1.429201    0.462444
H      7.855236   -1.126908    0.338790
H     -4.814591    0.960838   -1.872816
H     -4.797587   -0.559644   -2.886244
H      6.359418   -1.890563    1.865905
H     -3.485193    1.656772    1.081055
H     -3.185733    1.322217   -0.701006
H     -0.366378   -2.565396    0.208031
H     -0.451862   -1.641937   -1.324765
H     -2.571655   -0.350414   -1.984753
H     -2.825738   -2.106608   -1.692536
H     -2.026555    0.070263    1.835532
H     -4.076340   -2.179000    3.195215
H      0.103453   -0.836433    3.708131
