78

C     -4.994973   -3.719959    0.424730
C     -5.328806    4.430872   -1.803977
C      8.078593    0.794380    1.106743
C      8.009890    0.471531   -2.103517
C     -4.098821   -1.080311    1.537619
C     -6.148898    1.254432   -0.177396
C      3.516268   -2.528197    1.251467
C     -0.027883   -1.745340   -0.005962
C     -0.587111    2.521569    1.447538
C     -3.967985   -3.457630   -0.619625
C     -4.409114    3.224375   -1.586476
C      6.866001    1.299335    0.370954
C      4.934967   -1.648174   -1.798776
C      6.735073   -0.157051   -1.611526
C     -4.204565   -0.963318    0.055797
C     -4.707797    1.466400    0.282064
C      3.142450   -1.810411   -0.054653
C      0.869149   -0.990881    0.910947
C     -0.108895    1.325880    0.548969
C     -3.609969   -2.030611   -0.752356
C     -4.371159    2.856863   -0.144635
C      6.093656   -1.134766   -2.330914
C      6.176526    0.237304   -0.418531
C      4.405526   -1.219778   -0.588027
C      2.229150   -0.718895    0.341090
C      0.314724    0.261658    1.485463
C     -3.765957    0.434388   -0.335594
C     -1.349825    1.036839   -0.236255
O     -2.764685   -1.766207   -1.602883
O     -4.058337    3.743709    0.638931
O      6.588012   -1.501524   -3.412973
O      2.563982    0.433616    0.212302
O     -0.698193   -0.009243    2.428611
O     -1.308295    1.133892   -1.482767
O      5.062741   -0.285148    0.049561
O     -2.527503    0.682756    0.339518
H     -5.571169   -2.816798    0.633623
H     -5.727733   -4.474996    0.055435
H     -4.465909   -4.145169    1.316422
H     -6.305464    3.970692   -2.150118
H     -5.003390    5.071753   -2.637584
H     -5.466190    5.024955   -0.901642
H      9.010046    1.208527    0.712110
H      8.019775    1.067574    2.199054
H      8.123638   -0.329044    1.041388
H      8.270759    0.040244   -3.106276
H      8.872218    0.220781   -1.453267
H      7.917361    1.555391   -2.144723
H     -3.600819   -1.999697    1.895118
H     -5.087676   -0.936142    2.062350
H     -3.464207   -0.247524    1.968795
H     -6.255225    1.098959   -1.247649
H     -6.676988    2.230301    0.058879
H     -6.672935    0.506069    0.458207
H      2.826750   -3.329475    1.500174
H      4.559290   -2.933678    1.086120
H      3.627759   -1.747889    2.021861
H      0.315613   -2.811722   -0.146177
H     -1.009563   -1.845541    0.499301
H     -0.147038   -1.294193   -0.993734
H     -1.191340    2.029237    2.233153
H      0.319875    2.966645    1.875134
H     -1.159326    3.219333    0.821112
H     -3.069638   -4.106622   -0.530088
H     -4.444121   -3.735391   -1.610464
H     -4.595685    2.401610   -2.268737
H     -3.369112    3.622461   -1.826646
H      6.106300    1.740184    1.051519
H      7.162370    2.122070   -0.312925
H      4.396564   -2.423905   -2.331542
H     -5.321345   -1.000237   -0.169618
H     -4.707837    1.415173    1.382985
H      2.707850   -2.528098   -0.775846
H      1.070318   -1.663566    1.818235
H      0.670816    1.684887   -0.109071
H      1.160549    0.715139    2.101970
H     -3.667173    0.575835   -1.407287
H     -0.705905   -0.960487    2.664268
