95

C     -5.366599   -3.366346    2.107562
C     -5.441078   -2.124455   -0.152775
C     -3.031484    3.771172    2.290878
C     -5.182817    2.334239    1.994263
C      3.194689    5.948612   -2.837314
C      2.858105    4.019419   -4.456879
C     -0.553460   -4.709583   -1.286928
C      0.221812   -4.913506    1.094856
C     -1.828805    0.455075   -1.693569
C     -2.611402   -1.825632   -0.067446
C     -3.347447   -2.516551    1.018532
C     -3.241479    2.118305    0.525966
C     -1.917123    2.468045    0.093561
C      1.626425    4.120630   -2.375606
C      0.563556   -2.829427   -0.121296
C     -1.884632   -0.646843    0.484576
C      0.949700    2.833200   -2.705540
C      0.541621   -1.833326   -1.203660
C      3.734595   -0.694118    2.507604
C      5.197274   -2.853371    1.704236
C      0.442934    2.216750   -0.311593
C     -4.653061   -2.659681    0.988270
C     -3.802621    2.730398    1.581785
C      2.523987    4.669861   -3.174283
C      0.094696   -4.063244   -0.148380
C     -0.769747    1.517407    0.181516
C      4.138388   -0.779505    1.217573
C      4.888755   -1.878253    0.790113
C      4.068569   -1.714209    3.419775
C      4.796660   -2.791960    3.025675
C      2.624328    0.527607   -0.207444
C      3.798765    0.192536    0.225855
C      2.512756    1.578937   -1.249866
C      1.363299   -0.061357    0.207636
C      0.659586    0.456810   -2.033655
C     -1.017705    0.114435   -0.466768
C      1.057440    1.813126   -1.610367
C      0.288965   -0.436163   -0.829379
O      5.292755   -1.958053   -0.505570
O      3.621949   -1.563928    4.723599
O      5.145775   -3.813407    3.885739
O      4.896008    0.873488   -0.352597
O      3.405535    2.184745   -1.763609
O      1.123990   -0.275005    1.398603
O      0.630440    0.099441   -3.139522
H     -6.183457   -2.717011    2.487219
H     -4.627421   -3.536910    2.902628
H     -5.737958   -4.345555    1.763672
H     -5.147655   -2.516612   -1.126104
H     -5.403396   -1.009688   -0.199251
H     -6.516479   -2.418171   -0.003623
H     -2.098057    3.376790    2.730802
H     -2.807405    4.669903    1.670687
H     -3.651984    4.072319    3.183691
H     -5.073236    1.843571    2.986507
H     -5.624613    1.681013    1.239188
H     -5.742107    3.274515    2.149772
H      4.255964    5.733156   -2.546267
H      2.633250    6.472669   -2.050621
H      3.283782    6.557153   -3.780412
H      1.952169    3.962494   -5.117253
H      3.608560    4.596771   -5.038217
H      3.189032    2.993070   -4.310769
H     -1.560340   -5.084014   -0.967433
H     -0.591685   -4.146304   -2.216344
H      0.025912   -5.653649   -1.507709
H      0.990593   -5.694994    0.943004
H      0.482819   -4.294243    1.973210
H     -0.741416   -5.413491    1.318893
H     -1.532502    1.437098   -2.074432
H     -2.916924    0.294416   -1.592986
H     -1.451736   -0.260944   -2.510629
H     -3.487132   -1.415175   -0.735099
H     -2.118454   -2.519149   -0.694406
H     -2.787903   -2.915911    1.866155
H     -3.863155    1.401039    0.039076
H     -1.580666    3.340919    0.774527
H     -1.916706    3.012981   -0.907479
H      1.387588    4.647682   -1.444706
H      1.045787   -2.464581    0.812382
H     -2.549202   -0.057742    1.112888
H     -1.133480   -1.084303    1.257739
H      1.317025    2.405738   -3.646510
H     -0.112632    3.090788   -2.850633
H     -0.121144   -2.174904   -2.056336
H      1.567450   -1.849406   -1.704495
H      3.184850    0.160472    2.862472
H      5.785441   -3.735288    1.413058
H      1.172395    2.318214    0.542156
H      0.171119    3.317581   -0.469209
H     -0.664831    1.260426    1.258440
H      5.824396   -2.676745   -0.932402
H      3.844457   -2.273190    5.392327
H      4.924786   -3.890293    4.844838
H      5.482405    1.491181    0.183869
