52

C      4.294581   -0.740920   -0.098317
C      2.783449   -1.543750    1.653073
C     -1.163061   -2.740651    1.237241
C     -3.552990    2.367791    1.296954
C      0.847318    2.242291   -1.948786
C     -3.843108    0.596361   -0.470089
C     -0.393823   -1.950349   -0.917921
C     -3.014765   -0.683619   -0.644740
C      0.556214   -1.011102   -1.622890
C      2.259101    1.321625    0.734064
C      1.032467    2.173133    0.477994
C     -1.059134    1.420241   -0.695135
C      2.863605   -1.146393    0.193673
C     -0.864571   -1.482903    0.403669
C     -3.114632    1.410147    0.541786
C      2.014499    0.043168    0.001363
C     -2.022179   -0.602271    0.455731
C     -1.718187    0.883136    0.514645
C      0.979243    0.134613   -0.800838
C      0.413150    1.519088   -0.684072
H      4.970203   -1.614071   -0.183592
H      4.633107   -0.024287    0.678108
H      4.311873   -0.169633   -1.059076
H      3.774710   -1.413177    2.168047
H      2.476629   -2.606056    1.768758
H      2.041787   -0.933001    2.202549
H     -1.690679   -3.443024    0.549317
H     -1.909820   -2.503671    2.040273
H     -0.260741   -3.156377    1.683685
H     -4.583513    2.698108    1.261810
H     -2.894285    2.870026    1.991739
H      1.904629    1.922776   -2.163284
H      0.204088    2.043616   -2.804316
H      0.925597    3.328643   -1.682874
H     -3.760570    1.155133   -1.438525
H     -4.873293    0.379620   -0.189246
H      0.197574   -2.901206   -0.750477
H     -1.236860   -2.274512   -1.569377
H     -2.621234   -0.780011   -1.651864
H     -3.678229   -1.551412   -0.455751
H      0.001453   -0.669845   -2.550358
H      1.435899   -1.562851   -2.068824
H      3.164246    1.791050    0.308525
H      2.403044    1.180937    1.811311
H      1.403087    3.193248    0.199121
H      0.413625    2.308703    1.367152
H     -1.356166    0.817316   -1.596113
H     -1.471044    2.448612   -0.916963
H      2.576781   -2.016357   -0.405598
H     -0.005448   -0.998722    0.945611
H     -2.591980   -0.802787    1.415149
H     -1.201649    1.073573    1.467681
