107

C    -11.342475   -1.513560    4.807926
C      7.759370    1.744712    2.207321
C    -11.749015   -0.286013    4.062989
C    -11.425902   -0.302100    2.602077
C     -9.937614   -0.444171    2.319828
C     -9.179480    0.707676    2.935202
C     -7.707161    0.586069    2.661496
C     -7.465229    0.578795    1.176149
C     -7.970174    1.820546    0.516519
C     -7.698844    1.830721   -0.994518
C     -8.358301    0.673685   -1.659106
C     -8.189489    0.571442   -3.127810
C     -6.768111    0.429695   -3.616074
C     -6.099575   -0.763292   -3.084067
C     -4.991103   -0.765393   -2.376534
C     -4.225386    0.417378   -1.995878
C     -2.784403    0.349906   -2.553528
C      8.679564   -2.511267   -0.655101
C      7.368447   -2.668505    0.024981
C      9.652825   -1.569537    0.063997
C     -2.115679    1.591084   -2.109801
C      6.571686   -1.381512    0.148886
C     10.888555   -1.523755   -0.776513
C     -1.044802    1.649863   -1.369585
C      6.321695   -0.867422   -1.233571
C     12.011930   -0.742021   -0.272111
C     -0.329785    0.475497   -0.857148
C      5.543169    0.390698   -1.336681
C     11.836114    0.699053   -0.067010
C      1.075572    0.491811   -1.394583
C      4.159551    0.361915   -0.782166
C      9.836296    1.982501    0.832290
C      9.198633    2.168869    2.143970
C     10.889367    1.177885    0.932790
C      1.892241   -0.686878   -0.911585
C      3.284270   -0.671018   -1.458060
C     10.975144    0.769704    2.356662
O      1.853643   -0.857238    0.449639
O      3.263641   -0.491689   -2.831575
O     11.860445   -0.000396    2.833515
O      9.947988    1.364070    3.039913
H    -10.878550   -1.208176    5.786518
H    -10.640704   -2.179563    4.288735
H    -12.238346   -2.131362    5.089242
H      7.198409    2.439427    2.830787
H      7.641939    0.727660    2.655998
H      7.295877    1.713406    1.181826
H    -12.859517   -0.173209    4.138650
H    -11.335294    0.649824    4.526147
H    -11.969548   -1.066795    2.046130
H    -11.705349    0.710617    2.202772
H     -9.542228   -1.423350    2.624509
H     -9.844891   -0.374484    1.216837
H     -9.344775    0.739813    4.047179
H     -9.549805    1.681798    2.570586
H     -7.184028    1.451136    3.123544
H     -7.337761   -0.356362    3.126270
H     -7.885894   -0.365211    0.787727
H     -6.355507    0.509713    1.035710
H     -9.088391    1.930366    0.653901
H     -7.507834    2.699549    0.998235
H     -8.146210    2.804836   -1.336686
H     -6.626107    1.924349   -1.104964
H     -9.447292    0.725511   -1.397984
H     -7.998659   -0.306965   -1.220617
H     -8.777214   -0.331638   -3.470847
H     -8.711744    1.422521   -3.656474
H     -6.851405    0.276228   -4.742742
H     -6.252113    1.376798   -3.512088
H     -6.548415   -1.759121   -3.283402
H     -4.601675   -1.733796   -2.039657
H     -4.083180    0.503893   -0.877624
H     -4.703413    1.342252   -2.315903
H     -2.895156    0.299081   -3.659720
H     -2.338091   -0.581818   -2.232795
H      9.160217   -3.534286   -0.648254
H      8.597721   -2.235421   -1.707760
H      6.759330   -3.367341   -0.580283
H      7.482592   -3.148913    1.025053
H      9.217697   -0.590654    0.204799
H      9.838387   -1.999928    1.067044
H     -2.582974    2.524298   -2.446638
H      7.123139   -0.633135    0.749818
H      5.659134   -1.638234    0.711063
H     10.626490   -1.095262   -1.812267
H     11.204435   -2.586751   -1.036411
H     -0.652536    2.638762   -1.113596
H      7.341559   -0.643511   -1.665515
H      5.905650   -1.645635   -1.912196
H     12.296988   -1.213516    0.744273
H     12.963766   -0.958873   -0.864446
H     -0.824390   -0.483368   -0.940692
H     -0.217451    0.651584    0.257504
H      5.523500    0.675779   -2.417885
H      6.104291    1.199156   -0.822585
H     11.565869    1.234955   -1.038373
H     12.877422    1.135578    0.135461
H      1.038635    0.553991   -2.491271
H      1.567668    1.416316   -1.029678
H      4.168722    0.249398    0.313731
H      3.703719    1.352756   -0.981114
H      9.509194    2.428157   -0.088063
H      9.235462    3.238839    2.471860
H      1.393480   -1.597482   -1.358252
H      3.692212   -1.709137   -1.295174
H      1.702887   -0.023335    0.965395
H      3.642438    0.375939   -3.128491
