42

C     -4.209519    0.492286    1.485748
C      3.802575    0.867519   -0.097608
C      2.630470   -1.128299    0.567625
C     -0.606184   -1.906977   -0.164142
C     -1.852152    1.203324    1.394410
C     -0.465188    0.641766    1.297387
C     -2.942263   -0.137231   -0.412949
C      1.524437    0.266574   -1.841869
C     -1.926311   -0.376077   -1.446568
C      0.393612   -0.687672   -2.076244
C     -2.925957    0.498791    0.744332
C      1.376176    0.817306   -0.438309
C     -0.032725    0.570867   -0.121676
C      2.452227    0.373227    0.471306
C     -0.538938   -0.622085   -0.888625
O      2.413387    0.863870    1.745801
H     -5.062006    0.151312    0.851122
H     -4.178240   -0.198004    2.346398
H     -4.492380    1.538271    1.804800
H      4.100930    0.133250   -0.855562
H      4.557222    0.942102    0.691219
H      3.632918    1.838839   -0.633145
H      2.264020   -1.680121   -0.292283
H      2.104588   -1.483798    1.473333
H      3.717004   -1.373969    0.775096
H     -1.652894   -2.307715   -0.032863
H     -0.115447   -2.001138    0.790861
H     -0.129395   -2.689982   -0.829017
H     -1.781954    2.279184    1.068115
H     -2.069279    1.277392    2.500995
H     -0.398686   -0.302237    1.830495
H      0.178182    1.444933    1.776695
H     -3.906656   -0.586964   -0.679955
H      2.466918   -0.322630   -1.971360
H      1.566265    1.051909   -2.624418
H     -1.932413    0.433510   -2.204200
H     -2.190977   -1.311593   -1.980021
H     -0.101267   -0.404862   -3.030899
H      0.731558   -1.738026   -2.218302
H      1.535875    1.939390   -0.567705
H     -0.604232    1.427107   -0.629433
H      2.666698    0.206648    2.421416
