26

C     -2.697663    0.864959   -0.977898
C     -3.218763    0.043236    1.260175
C      1.206926   -0.568456   -1.186516
C     -0.199556   -0.001503   -1.140823
C      1.347038    0.042425    1.205323
C      3.395155   -0.594073    0.094075
C     -2.277262    0.228070    0.097731
C      1.928824   -0.350803    0.088594
C     -0.898087   -0.287713    0.137443
C     -0.098981    0.294339    1.245238
O      3.954255    0.274281   -0.841317
O     -0.627145    0.969023    2.172563
H     -2.067958    1.015317   -1.814564
H     -3.732580    1.239119   -0.979918
H     -3.134831    0.916052    1.943523
H     -4.232085    0.015674    0.861843
H     -3.001002   -0.906556    1.798076
H      1.732806   -0.023320   -2.017523
H      1.206117   -1.638671   -1.446775
H     -0.744739   -0.477532   -1.980153
H     -0.145523    1.110789   -1.260227
H      1.923720    0.185698    2.108569
H      3.551553   -1.633511   -0.301400
H      3.843509   -0.527679    1.085977
H     -0.950210   -1.392572    0.345818
H      3.936481    1.203406   -0.497834
