41

C     -5.316919    0.490395    0.062570
C     -3.135758    1.754559    0.423011
C      4.731573    2.170419    0.028171
C      0.563649   -2.212745   -2.022452
C     -1.696216   -0.639566    0.589735
C     -3.169385   -0.681826    0.364237
C      2.594553    1.086444    0.953810
C      1.274843    0.602736    0.462987
C     -1.079679   -1.306766   -0.563485
C      3.702071    0.201857   -0.977517
C     -3.838283    0.454038    0.287214
C      3.684394    1.129306   -0.039169
C      1.254632   -0.279653   -0.718673
C      2.631051   -0.778036   -0.964924
C      0.368096   -1.477301   -0.682786
O      2.903620   -2.013919   -1.163045
O      0.897886   -2.345108    0.295361
H     -5.788195    1.183440    0.766960
H     -5.569663    0.788622   -0.977787
H     -5.764411   -0.517971    0.246517
H     -3.838354    2.604767    0.380891
H     -2.381270    1.932022   -0.366594
H     -2.686094    1.793740    1.448648
H      4.455682    3.017908    0.653709
H      4.979785    2.473538   -1.026322
H      5.663302    1.650201    0.394993
H      1.039689   -3.200494   -1.889537
H     -0.402990   -2.435754   -2.521114
H      1.101822   -1.543155   -2.693436
H     -1.426814    0.430547    0.617847
H     -1.539468   -1.147824    1.564730
H     -3.684417   -1.631321    0.264870
H      2.903943    0.481553    1.864599
H      2.532286    2.130518    1.391724
H      0.790066    0.023027    1.307299
H      0.650792    1.522898    0.358241
H     -1.509322   -0.822892   -1.493295
H     -1.533880   -2.344841   -0.617743
H      4.473548    0.134520   -1.739272
H      0.931875    0.315882   -1.628336
H      0.231958   -2.993762    0.599663
