36

C      5.374515    1.521763   -0.920804
C     -4.580983    2.085167   -0.385527
C     -3.280953    2.514619   -0.285189
C     -3.026078   -2.325707    0.606438
C     -4.822657    0.742709   -0.180600
C     -4.056756   -1.473761    0.315748
C     -2.233707    1.653311    0.009387
C     -1.733916   -1.882505    0.703396
C      2.184957   -1.707879    0.086447
C      1.017337    0.355013    0.681249
C      4.008092    0.923298   -1.137499
C     -3.785907   -0.141521    0.116624
C      2.020558   -0.254044   -0.303415
C     -2.501628    0.308797    0.211158
C     -1.402607   -0.524028    0.507769
N      3.195743   -2.264624   -0.801297
O      3.433386    0.941711   -2.241491
O     -0.182064   -0.080609    0.595257
O      3.312894    0.315130   -0.109358
H      5.311462    2.234580   -0.063066
H      6.058684    0.721611   -0.599977
H      5.760332    1.979470   -1.827058
H     -5.376106    2.782875   -0.616906
H     -3.073863    3.558034   -0.441896
H     -3.300482   -3.377686    0.755552
H     -5.835904    0.356759   -0.249709
H     -5.079500   -1.810809    0.236718
H     -1.212733    1.993492    0.087497
H     -0.939248   -2.570966    0.935089
H      1.234623   -2.269566    0.015153
H      2.610951   -1.713136    1.119700
H      1.072662    1.492390    0.586392
H      1.529622    0.133274    1.687407
H      1.648051   -0.166015   -1.323907
H      2.751359   -2.525256   -1.706967
H      3.899863   -1.525892   -1.010224
