42

C      3.044073    0.352344   -1.155463
C      3.898803   -0.375706    1.005518
C     -1.980850    1.377090    1.942142
C     -1.284519    0.985738   -2.045508
C     -3.501763   -0.349840   -1.121909
C     -3.235415    0.418617    0.120105
C     -2.299363   -1.177300   -1.487738
C     -0.369066   -1.250868    0.898635
C      1.123394   -1.317772    0.543948
C      0.382055    0.890875    0.258365
C      2.858861    0.483114    0.313869
C     -2.045308    0.554622    0.678106
C     -1.054510   -0.331612   -1.335186
C     -0.805302   -0.063012    0.110374
C      1.511568    0.097785    0.819768
O      1.525082    0.262723    2.217690
H      2.709226    1.284953   -1.672896
H      2.591619   -0.547494   -1.605644
H      4.146819    0.278485   -1.379524
H      3.539186   -1.403480    1.162753
H      4.831974   -0.446640    0.406130
H      4.153846    0.078039    1.995502
H     -1.058970    1.198026    2.504756
H     -2.824209    1.100958    2.622058
H     -2.061631    2.430476    1.644427
H     -1.539518    1.799002   -1.335301
H     -2.075950    0.922892   -2.817739
H     -0.356985    1.325768   -2.576354
H     -3.836200    0.308916   -1.952879
H     -4.385907   -1.010360   -0.904617
H     -4.103347    0.893469    0.582130
H     -2.281861   -2.057903   -0.804223
H     -2.369766   -1.585134   -2.514839
H     -0.891093   -2.177725    0.683383
H     -0.398048   -0.965343    1.979489
H      1.161292   -1.595906   -0.520251
H      1.604871   -2.062062    1.198070
H      0.120627    1.723086    0.925298
H      0.665168    1.297052   -0.747728
H      3.066076    1.527025    0.608434
H     -0.219245   -0.839285   -1.850341
H      2.044288   -0.488036    2.607192
