42

C      3.899818   -0.398155   -0.943811
C      3.091772   -0.465204    1.387939
C     -1.450621    2.458922   -0.920501
C     -1.658618    0.116803    2.212879
C     -3.573676   -0.596981   -0.099560
C     -3.080073    0.736158   -0.491541
C     -2.559635   -1.451012    0.585703
C     -0.356127   -0.794964   -1.250488
C      1.068921   -1.147372   -0.850585
C      0.518240    0.785072    0.359821
C      2.955558    0.221249    0.072365
C     -1.801360    1.079873   -0.502505
C     -1.314335   -0.745824    0.994420
C     -0.758267    0.125599   -0.112524
C      1.592327    0.230178   -0.505409
O      1.618819    0.961009   -1.692808
H      3.708008   -1.502370   -0.959424
H      4.948194   -0.173217   -0.671343
H      3.682175    0.042865   -1.941073
H      2.368664   -1.285897    1.547368
H      4.104347   -0.956885    1.404275
H      3.110676    0.254315    2.233134
H     -1.134308    3.079860   -0.041651
H     -0.673887    2.478877   -1.722729
H     -2.333380    2.994562   -1.343429
H     -2.189684    1.020314    1.861899
H     -0.789253    0.312712    2.844398
H     -2.392593   -0.468243    2.803431
H     -3.889823   -1.110912   -1.052683
H     -4.521705   -0.474406    0.479237
H     -3.830017    1.472500   -0.788026
H     -2.354354   -2.388998   -0.005682
H     -3.044942   -1.837175    1.529954
H     -1.002045   -1.668723   -1.352441
H     -0.285978   -0.171094   -2.171927
H      1.661160   -1.537951   -1.685710
H      1.066883   -1.826940    0.033357
H      0.663161    0.602664    1.441654
H      0.499333    1.889141    0.234279
H      3.286637    1.272308    0.198385
H     -0.575829   -1.473661    1.334461
H      1.725818    0.341004   -2.453111
