27

C      1.541412   -1.467911    0.656232
C      0.347263   -1.013465    1.503284
C     -1.908645   -0.457040    0.880031
C      1.999709    0.493639   -0.709465
C      1.219761   -0.767005   -0.657029
C     -1.621562    0.952020    0.404969
C     -0.242076   -0.655931   -0.684024
C     -0.826724    0.692005   -0.872021
N     -0.725035   -1.189928    0.575437
O      1.731680    1.378194    0.310884
O     -2.850266    1.544786    0.130308
O     -1.788529    0.709245   -1.912164
H      1.450075   -2.551354    0.532868
H      2.492348   -1.126047    1.086477
H      0.532055    0.033062    1.799159
H      0.315515   -1.693319    2.366359
H     -2.201669   -0.493729    1.937618
H     -2.734184   -0.846844    0.249535
H      3.084069    0.212594   -0.604031
H      1.944331    0.979006   -1.723521
H      1.589857   -1.440777   -1.457871
H     -1.039128    1.464134    1.171807
H     -0.674582   -1.330658   -1.478757
H     -0.129740    1.497058   -1.097519
H      2.542716    1.955798    0.447475
H     -2.728605    2.488501   -0.067955
H     -1.320047    0.633967   -2.788087
