54

C     -4.189041   -2.011851   -0.722286
C      3.978856   -4.294901   -0.507574
C      4.126222    1.001359   -2.310815
C     -0.656380    5.234377    1.017891
C      2.559140    1.848228    1.553061
C     -0.343884   -2.361826    1.094451
C     -1.502602   -2.219881    0.140054
C     -3.796388    1.119001    0.496408
C     -4.061562    0.323737   -0.779389
C      1.861965   -2.586320    0.086398
C     -1.797683    2.671011    0.652256
C      1.918794    0.077250   -0.808405
C      0.843234   -1.756649    0.371757
C     -2.319326    1.418260    0.472764
C      0.896077   -0.441730   -0.078793
C     -2.259960   -0.968441    0.135496
C      2.946009   -2.104108   -0.658861
C      2.957663   -0.786279   -1.093493
C     -0.435644    2.860088    0.608942
C     -1.506840    0.308028    0.242200
C     -0.116446    0.567775    0.204543
C      0.446121    1.796370    0.382649
N     -3.291218   -0.882439   -0.876079
O      4.003705   -2.953110   -0.957164
O      4.020089   -0.302758   -1.829197
O      0.144437    4.107732    0.785574
O      1.805271    1.971520    0.352283
H     -4.254773   -2.244301    0.378902
H     -3.845182   -2.915330   -1.246331
H     -5.222190   -1.775406   -1.038779
H      3.710861   -4.382189    0.566600
H      5.037209   -4.657956   -0.575477
H      3.323677   -4.919743   -1.162503
H      3.215425    1.286008   -2.883108
H      4.273999    1.758204   -1.495209
H      5.027308    1.072958   -2.954328
H     -1.568163    5.270976    0.380053
H     -0.977723    5.210224    2.071374
H     -0.087810    6.183954    0.800832
H      1.911536    1.429294    2.370306
H      2.897110    2.839953    1.923360
H      3.404999    1.138933    1.445288
H     -0.135567   -3.411278    1.334953
H     -0.496853   -1.774922    2.003715
H     -1.164306   -2.455098   -0.892883
H     -2.221691   -3.045375    0.418646
H     -4.107516    0.598472    1.403460
H     -4.332641    2.075830    0.379519
H     -3.871927    1.027269   -1.620588
H     -5.145332    0.089670   -0.762026
H      1.829771   -3.604345    0.432999
H     -2.469986    3.496530    0.826251
H      1.895237    1.055236   -1.193931
H     -2.856084   -0.982011    1.114234
