76

C      2.467335    3.681786    2.288009
C     -2.996105    3.333920    1.407137
C     -1.528982   -2.004206   -4.100978
C      2.265594   -4.264221    0.622686
C     -0.492474   -2.764387   -4.593875
C      1.438565   -5.239182    0.092623
C     -1.377873   -1.217784   -2.960451
C      1.829710   -2.936524    0.701160
C      0.722820   -2.734307   -3.933892
C      0.183918   -4.865292   -0.348274
C     -0.026006    0.988829   -1.084036
C     -0.156969   -0.541953    1.503500
C      4.528037    1.708481    2.098497
C     -4.905477    1.917462   -0.135414
C     -0.192824   -1.183990   -2.303735
C      0.595183   -2.573349    0.264412
C      0.867323   -1.931661   -2.778429
C     -0.254049   -3.528199   -0.266528
C      1.694158   -0.377704   -1.459273
C     -1.511711   -1.823124    0.297350
C      1.321911    2.579943    0.349267
C     -1.943311    1.169145    2.052587
C      3.415504    0.718018    0.188125
C     -3.524012   -0.125781    0.171103
C      0.275216   -0.484346   -1.001941
C     -0.147616   -1.227053    0.153238
C      1.338910    1.643092   -0.734425
C     -1.640184   -0.193589    1.740516
C      3.706295    2.026320    0.877264
C     -4.058191    1.103622    0.829464
N      2.017852   -1.633895   -1.925461
N     -1.527406   -2.882191   -0.575876
N      2.491650    2.757964    1.161626
N     -2.998352    1.891699    1.427020
N      2.278311    0.523041   -0.634745
N     -2.324969   -0.773794    0.570293
O      4.889959    2.892552    2.710876
O     -5.516863    2.995268    0.505841
O      0.304592    3.262223    0.615072
O     -1.221568    1.747022    2.937357
O      4.251877   -0.224077    0.377160
O     -4.239116   -0.562225   -0.796631
S      1.838778    2.595338   -2.238760
S     -2.271955   -1.211885    3.146024
S      4.722558    3.041737   -0.263142
S     -5.171097    0.568256    2.166406
S      3.493849    3.843246   -1.775109
S     -4.234039   -0.617516    3.621471
H      1.480569    4.176017    2.399034
H      2.650422    3.159551    3.266338
H      3.249248    4.480086    2.195536
H     -2.049925    3.685547    1.882136
H     -2.944822    3.619626    0.325299
H     -3.854230    3.788143    1.922780
H     -2.499063   -2.028527   -4.624307
H      3.261179   -4.481232    0.996261
H     -0.593002   -3.375136   -5.462731
H      1.811678   -6.244093    0.044760
H     -2.205079   -0.633627   -2.615649
H      2.492248   -2.196381    1.119403
H      1.571629   -3.304667   -4.271589
H     -0.450212   -5.620393   -0.761620
H     -0.766834    1.419638   -0.470855
H     -0.288391    1.197057   -2.159572
H      0.099519   -1.357104    2.250728
H      0.527652    0.240443    1.686471
H      3.989489    1.007835    2.775626
H      5.451907    1.171766    1.786940
H     -4.229564    2.281381   -0.926085
H     -5.699582    1.283529   -0.583947
H      1.575257    0.221091   -2.478345
H     -1.418800   -2.384686    1.345904
H      2.816111   -2.254016   -1.790910
H     -2.184440   -3.248980   -1.279805
H      5.849024    3.066106    2.494409
H     -6.320751    3.264296   -0.031320
