43

C      4.932175    1.038189   -1.159013
C     -0.522226   -2.369310   -0.415825
C      0.120292   -2.234477    1.927450
C     -3.245310    1.743479   -1.271808
C     -2.365115   -0.621930    1.390450
C     -3.217243    0.545780    0.933913
C      3.731821   -0.640872    0.165669
C      3.678364    0.399973   -0.679415
C     -1.028649   -0.277646    0.868106
C      2.493849   -1.258187    0.628816
C      1.109620    0.226435   -0.615804
C     -1.378003    0.253509   -0.517169
C      1.185106   -0.789991    0.210163
C      2.352213    0.845932   -1.080580
C     -0.154357    0.808955   -1.125801
C     -0.076733   -1.412224    0.676921
C     -2.409921    1.279280   -0.119521
O      2.629933   -2.240775    1.429166
O      2.307188    1.836738   -1.884868
O     -0.134485    2.195476   -0.992890
O     -1.708843    2.339224    0.493018
H      5.754564    0.828881   -0.475338
H      5.146608    0.793519   -2.218628
H      4.745763    2.149968   -1.148997
H     -0.097048   -3.385037   -0.198286
H     -0.063954   -2.088035   -1.406495
H     -1.603111   -2.489858   -0.466150
H      0.725528   -1.696918    2.671982
H      0.487679   -3.237506    1.681312
H     -0.901265   -2.372958    2.372574
H     -2.699411    1.493279   -2.213177
H     -4.224902    1.257772   -1.319469
H     -3.336061    2.865127   -1.190919
H     -2.312989   -0.647208    2.516673
H     -2.727753   -1.581445    0.994320
H     -3.415566    1.211689    1.793828
H     -4.199532    0.212940    0.543523
H      4.713725   -0.982638    0.472087
H     -0.556945    0.546767    1.409470
H     -1.880064   -0.526411   -1.128442
H     -0.165947    0.610857   -2.230342
H      0.592979    2.471285   -0.363912
H     -2.281974    2.898370    1.043407
