78

C      3.298764   -1.686222   -2.562073
C     -2.113239   -3.512140   -2.312026
C      3.795328   -1.839580    2.985491
C      1.050190    3.181169   -3.974493
C      1.518824    0.291659    4.241916
C     -1.321901   -1.780682    3.580567
C     -1.202546    2.091451    1.575053
C     -1.690402    3.773535   -0.385816
C     -2.713472    2.895592   -1.012019
C      1.227393   -2.265109   -1.446090
C      1.676017    0.709756   -0.517582
C     -3.847987    0.671474   -1.253713
C      2.288352   -1.515225   -1.437978
C     -2.098882   -2.832272   -0.984115
C      3.718470   -1.214096    1.653566
C      0.861890    3.394031   -2.511404
C      1.495459    1.079006    3.000558
C     -1.914080   -1.438936    2.286537
C      2.486592   -0.517072   -0.342488
C     -0.380195    2.984983   -0.501435
C      0.908732    1.268067    0.597574
C      0.186778   -2.203972   -0.435446
C     -1.372441    0.804426   -0.477100
C     -1.652376   -0.564762    0.011588
C     -1.500669   -3.712649    0.085954
C     -0.502605    1.695978    0.288116
C     -2.745222    1.493116   -0.570841
C     -1.126911   -1.649047   -0.947588
O      4.771776   -0.757403    1.154402
O      1.669718    4.125804   -1.855972
O      1.955351    2.237620    3.000755
O     -3.131550   -1.620753    2.078904
O     -2.118334   -4.391665    0.954362
O     -0.956971   -1.198813   -2.226573
O     -3.813802    0.929207    0.089668
O      2.554120   -1.100555    0.916915
O     -0.201092    2.785433   -1.880762
O      0.973222    0.558790    1.840821
O     -1.145492   -0.910253    1.269090
O     -0.144565   -3.576432   -0.137667
H      3.515192   -2.776831   -2.705404
H      4.217367   -1.148286   -2.317918
H      2.857973   -1.285607   -3.501428
H     -2.947316   -3.114769   -2.919737
H     -1.186672   -3.440434   -2.882117
H     -2.368233   -4.596361   -2.128128
H      2.873536   -2.407800    3.238033
H      4.683020   -2.538778    2.944747
H      4.072815   -1.092425    3.756078
H      1.801579    2.375229   -4.111902
H      1.460847    4.132704   -4.385764
H      0.073165    2.941576   -4.416204
H      1.349821   -0.779499    4.114769
H      2.504837    0.398941    4.783648
H      0.767397    0.741025    4.957439
H     -0.352619   -2.326053    3.449595
H     -1.140080   -0.845245    4.133989
H     -1.990751   -2.470827    4.140190
H     -2.263670    2.279046    1.323183
H     -0.806429    3.087056    1.935792
H     -1.167513    1.336200    2.356459
H     -1.893860    4.149233    0.608332
H     -1.544340    4.660248   -1.060486
H     -2.528531    2.910479   -2.123301
H     -3.704482    3.336977   -0.837951
H      1.090152   -3.000142   -2.262909
H      2.325698    1.549653   -0.953397
H      1.032417    0.507658   -1.439900
H     -3.590190   -0.278523   -1.708988
H     -4.651640    1.216218   -1.796018
H     -3.106386   -2.556980   -0.679504
H      3.574463   -0.174847   -0.533752
H      0.425765    3.605192   -0.079906
H      1.405593    2.252774    0.903034
H      0.452373   -1.799625    0.547076
H     -1.085611    0.705284   -1.570071
H     -2.760882   -0.805170    0.069442
H     -0.137045   -1.430753   -2.685678
