85

C     -6.032191   -0.608533    5.213200
C    -10.442575    0.362226    3.808324
C      7.910032    3.413601    1.325415
C    -10.718783    0.452880    0.197531
C     12.638929    0.987499    0.783950
C      5.519507   -2.207959   -0.458523
C      4.075579   -1.727521   -0.373900
C     -5.367298   -0.334030    0.097061
C     -6.254468   -0.501106    2.448588
C      8.676393   -1.701250    0.200669
C      1.083747   -1.102415   -0.787976
C     -2.723282   -1.670110   -1.209438
C     -2.222132    1.736252   -2.424781
C     -3.469558    0.185188   -4.058543
C     -6.337256   -0.443144    1.088444
C     -2.157533    0.875476   -3.670662
C      6.289049   -0.972213   -0.303881
C      7.636213   -0.831735   -0.013729
C     -0.268240   -1.100322   -1.061462
C     -5.969304   -0.315706   -1.120874
C      1.701610   -0.053945   -1.419659
C      9.864858   -0.986588    0.462792
C     -1.393450   -1.961875   -0.701508
C     -7.391202   -0.609969    3.224906
C     -2.887771   -0.623774   -1.978348
C     -7.547708   -0.490228    0.446195
C      8.169098    0.424247    0.113671
C      5.445048    0.104416   -0.474405
C      5.999986    1.359122   -0.340576
C     -8.608640   -0.658399    2.572522
C      7.351439    1.518210   -0.049318
C     -8.721713   -0.601588    1.201797
C     -0.474729   -0.023394   -1.876829
C      3.094523    0.375603   -1.407351
C     -5.379106   -0.119597   -2.423274
C     11.157457   -1.607570    0.724421
C     -1.826779    0.291247   -2.357754
N     -7.316653   -0.413131   -0.863599
N      9.499374    0.296620    0.397448
N      0.705813    0.602030   -2.090402
N      4.128166   -0.335484   -0.775608
N     -4.035367   -0.161291   -2.718936
O     -1.187781   -2.942111    0.043258
O      5.173187    2.461824   -0.502483
O      3.409318    1.469954   -2.006412
O     -6.197968    0.123045   -3.418421
O     11.207911   -2.901760    0.752642
O     -7.285190   -0.665216    4.601508
O     -9.741034   -0.767915    3.332479
O      7.881787    2.768305    0.077940
O     -9.929326   -0.650903    0.544411
S     12.662818   -0.786562    1.002953
H     -5.480339   -1.568092    5.159315
H     -6.218602   -0.450858    6.316418
H     -5.377962    0.207867    4.839631
H    -10.464399    0.318824    4.916289
H    -11.478601    0.266963    3.412445
H     -9.922221    1.267156    3.447609
H      7.570018    2.719993    2.121146
H      7.214953    4.284821    1.266242
H      8.932532    3.801424    1.525391
H    -11.727316    0.043678   -0.096499
H    -10.846244    1.125333    1.056835
H    -10.309637    0.988975   -0.697712
H     12.277166    1.210923   -0.244895
H     13.718895    1.371048    0.763191
H     12.134210    1.509017    1.594122
H      5.726306   -2.931083    0.356382
H      5.665298   -2.673524   -1.453048
H      3.727252   -1.799279    0.639498
H      3.472693   -2.237301   -1.163124
H     -4.319403   -0.254635    0.361352
H     -5.275636   -0.459887    2.925714
H      8.601314   -2.766407    0.173085
H      1.525788   -1.850245   -0.140650
H     -3.601752   -2.282497   -0.980157
H     -3.233444    2.008062   -2.061976
H     -1.440232    2.494752   -2.292650
H     -3.222864   -0.723035   -4.607486
H     -4.121381    0.858867   -4.606564
H     -1.382512    1.068501   -4.388903
H     -8.042949   -0.424423   -1.595958
H     10.111248    1.109641    0.542457
H      0.844179    1.445569   -2.668828
H      5.548829    3.389450   -0.410554
