92

C     -0.636564    1.203237   -1.338881
C     -2.456242    2.589770   -0.852679
C      3.487466    0.738822   -0.091541
C      4.544226    1.398858    1.893239
C     -4.070542   -2.367567    0.857870
C     -4.445832   -0.034874    1.121768
C     -0.819783   -0.724718    1.540752
C    -10.652185   -1.206750    1.405460
C     -1.399460    1.796894   -0.386641
C      3.378831    1.073360    1.237165
C     -4.948240   -1.288695    0.879368
C     -2.260066   -0.889779    1.316158
C     -2.749264   -2.155334    1.074592
C     -0.854511    1.346775   -2.690057
C     -2.697859    2.751148   -2.198185
C      4.707293    0.724899   -0.756349
C      5.758511    1.387222    1.240804
C     -3.088978    0.217712    1.348932
C     -0.373343    0.689940    1.627858
C     -9.410007   -0.322077    1.580901
C     -1.913168    2.142118   -3.127221
C     -9.447164    0.824204    0.601847
C     -9.014862    0.405335   -0.783461
C      9.195540   -1.909677   -1.652084
C     10.457778   -1.439131   -0.968405
C     -8.011842   -0.708031   -0.760546
C      8.425376   -0.615630   -1.969790
C     -1.267532    1.719404    1.062793
C      5.879099    1.047397   -0.114006
C     10.050719   -0.733208    0.309822
C     11.249227   -0.276357    1.066805
C      2.062166    1.069805    1.895623
C     -7.323623   -0.658879    0.611844
C      8.017671   -0.067121   -0.631830
O    -10.699154   -2.154602    2.399323
O     -1.872782   -3.253998    1.050173
O     -0.030767    0.708339   -3.603298
O     -3.751376    3.542050   -2.603241
O      4.749280    0.380095   -2.098120
O      6.938482    1.714954    1.898717
O     -2.084112    2.250675   -4.492777
O     -8.757515    1.941795    1.063205
O    -10.134417    0.085802   -1.564610
O      9.430209   -2.661416   -2.776144
O     11.293810   -2.533522   -0.678515
O     -7.003660   -0.509842   -1.732196
O      7.408841   -0.848848   -2.851789
O     11.293493    0.883472    1.489676
O     12.274183   -1.157202    1.273865
O      1.915493    1.343471    3.090944
O     -6.263577   -1.577219    0.652515
O     -2.587296    1.492465    1.593058
O      0.952285    0.746654    1.144672
O     -8.287440   -1.103106    1.514176
O      7.135949    1.052501   -0.713142
O      9.114270    0.239935    0.164618
H      0.172260    0.591569   -1.031621
H     -3.122173    3.104711   -0.160591
H      2.561298    0.479560   -0.615938
H      4.455424    1.661574    2.936845
H     -4.419943   -3.376691    0.669707
H     -5.118013    0.810433    1.143116
H     -0.287683   -1.311854    0.758875
H     -0.575845   -1.236466    2.506526
H    -11.510853   -0.535035    1.457059
H    -10.536401   -1.649070    0.384905
H     -0.272366    0.946191    2.729285
H     -9.476452    0.104553    2.606160
H    -10.515962    1.143849    0.526161
H     -8.545207    1.284827   -1.269292
H      8.580516   -2.442168   -0.880997
H     10.945992   -0.706104   -1.616938
H     -8.480110   -1.689942   -0.923597
H      9.174197    0.060229   -2.473729
H     -0.974516    2.701941    1.520829
H      9.602863   -1.535662    0.970668
H     -7.022761    0.370523    0.775345
H      7.466890   -0.863192   -0.090355
H     -9.921216   -2.745436    2.371595
H     -2.193129   -4.184885    0.876727
H      0.730149    0.138468   -3.295093
H     -3.984966    3.706619   -3.554311
H      3.879688    0.150275   -2.554395
H      6.886040    1.961093    2.864895
H     -2.810875    2.795632   -4.878613
H     -8.741171    1.959862    2.054371
H     -9.871238    0.013934   -2.523385
H      9.617068   -3.600721   -2.454210
H     11.013778   -2.845982    0.214181
H     -7.194993   -1.025906   -2.563320
H      6.920733   -1.695719   -2.655379
H     13.161937   -0.852533    1.689285
