59

C      7.066865    0.429961   -1.998139
C      7.039782   -1.160707   -0.090952
C      2.498828   -1.063575   -1.504904
C     -1.485644   -1.183647    0.723311
C     -4.823357    1.297278   -3.411060
C      4.554991    0.387462   -0.542581
C      0.361486    0.326203   -0.695420
C      5.779106    0.996197    0.049516
C      3.695522    1.065624   -1.272849
C      1.239427    1.024258   -1.363310
C     -0.896681    0.926702   -0.199590
C     -4.876341   -0.869501    0.770567
C     -5.432392   -2.327466    2.690346
C      7.020089    0.288644   -0.475260
C      2.480337    0.399112   -1.842858
C     -1.805919    0.241797    0.481745
C     -4.952038    1.278331   -1.911453
C     -4.885390   -1.096827    2.067510
C     -4.300454    0.402566    0.290032
C     -3.063984    0.868002    0.972234
C     -4.297043   -0.058721    2.917331
C     -3.153520    0.770490    2.452922
O     -5.934034   -3.216911    1.774782
O     -5.765405    2.041284   -1.330451
O     -4.755329    0.143480    4.056307
O     -3.245383    1.999442    3.103774
O     -4.190670    0.431855   -1.121734
H      8.123698    0.187178   -2.279172
H      6.380011   -0.281848   -2.494874
H      6.794165    1.471045   -2.254872
H      8.081714   -1.534268    0.092911
H      6.482699   -1.341906    0.864239
H      6.608591   -1.814584   -0.879036
H      1.589143   -1.526985   -1.944535
H      2.434273   -1.219234   -0.407445
H      3.373740   -1.590193   -1.945852
H     -0.499957   -1.268016    1.229942
H     -2.189269   -1.721689    1.359931
H     -1.463174   -1.748072   -0.255223
H     -5.845451    1.429981   -3.800635
H     -4.256619    2.222030   -3.653313
H     -4.374860    0.378959   -3.787473
H      4.388185   -0.652825   -0.351375
H      0.482215   -0.720160   -0.459252
H      5.857629    2.066277   -0.230658
H      5.782924    0.869972    1.151653
H      3.855915    2.110606   -1.469918
H      0.986700    2.066406   -1.529300
H     -1.097657    1.970148   -0.393928
H     -5.294983   -1.631566    0.108325
H     -4.699758   -2.804122    3.373497
H     -6.302648   -1.984024    3.322627
H      7.944904    0.761726   -0.103216
H      2.600465    0.468182   -2.945461
H     -5.093146    1.177560    0.540104
H     -3.029909    1.991099    0.755958
H     -2.221563    0.281083    2.859955
H     -6.454787   -3.899637    2.273122
H     -2.816041    1.945541    3.992074
