85

C    -11.247057    2.327822    1.966074
C    -11.196603   -0.102253   -2.108588
C      6.559495    1.891115   -3.941752
C     -8.177579   -2.855384   -1.111753
C     11.310402    1.604795    2.781735
C      7.128780   -1.827291    1.251368
C      6.526667   -2.962989    0.366976
C     -6.151511    1.411397    1.385668
C     -8.695579    1.473025    1.294698
C      8.777437    1.077166    0.781161
C      2.777484   -0.408206    0.255301
C     -0.689239    1.208581    0.539353
C     -1.391801   -2.428848    0.889369
C     -3.032489   -1.197966   -0.594118
C     -7.404420    1.064192    0.977459
C     -1.702373   -1.986768   -0.547180
C      6.978573   -0.657343    0.331006
C      7.678728    0.501709    0.147160
C      1.426635   -0.076715    0.339268
C     -5.193420    0.638935    0.699794
C      2.832364   -1.762503    0.042356
C      9.110481    2.284027    0.208719
C      0.760364    1.202949    0.526257
C     -9.789147    0.904681    0.683470
C     -1.390521    0.096398    0.401437
C     -7.238365    0.078415    0.038862
C      7.345510    1.399981   -0.839662
C      5.899335   -0.958132   -0.483502
C      5.581667   -0.035456   -1.477817
C     -9.626375   -0.088519   -0.262338
C      6.263891    1.133059   -1.686646
C     -8.340197   -0.482448   -0.565509
C      0.698912   -1.213753    0.180911
C      4.012169   -2.592136   -0.042176
C     -3.767819    0.729068    0.902593
C     10.161912    3.225574    0.529654
C     -0.780192   -1.207230    0.246183
N     -5.890852   -0.149474   -0.101053
N      8.183760    2.433455   -0.796172
N      1.572571   -2.226232    0.001121
N      5.337954   -2.201062   -0.089422
N     -2.822101   -0.096224    0.287456
O      1.430825    2.241824    0.667815
O      4.504815   -0.336190   -2.303102
O      3.823736   -3.871540   -0.071978
O     -3.324029    1.636858    1.708321
O     10.214451    4.289175   -0.196964
O    -11.077045    1.313107    1.000316
O    -10.719423   -0.682256   -0.897593
O      5.942908    2.048980   -2.677404
O     -8.195461   -1.498526   -1.534458
S     11.355039    3.079048    1.780577
H    -12.357526    2.387701    2.154356
H    -10.922901    3.324837    1.580085
H    -10.691367    2.087017    2.898545
H    -12.221788   -0.426903   -2.325695
H    -11.075250    0.999507   -2.065212
H    -10.479745   -0.447566   -2.908744
H      6.247121    2.686952   -4.648287
H      6.287144    0.901243   -4.393192
H      7.649344    1.899033   -3.785730
H     -9.178439   -3.228649   -0.853721
H     -7.730110   -3.492208   -1.901937
H     -7.522786   -2.992492   -0.213919
H     11.484204    0.653504    2.220259
H     12.203831    1.687916    3.500757
H     10.389698    1.554542    3.379759
H      6.505323   -1.761712    2.141754
H      8.187259   -2.049946    1.472017
H      6.274357   -3.824582    0.969311
H      7.231012   -3.117335   -0.457784
H     -5.918390    2.149803    2.109135
H     -8.783519    2.247648    2.034744
H      9.264053    0.594407    1.609294
H      3.539504    0.324609    0.363538
H     -1.245919    2.162024    0.670640
H     -2.154460   -2.346817    1.663084
H     -0.752919   -3.309317    0.919823
H     -3.792679   -1.863035   -0.045074
H     -3.344520   -0.970896   -1.607162
H     -1.454978   -2.641901   -1.379734
H     -5.584460   -0.862226   -0.792546
H      8.169552    3.277933   -1.435467
H      1.267364   -3.210274   -0.145209
H      4.158724    0.217292   -3.049438
