54

C      7.234195    0.883120   -1.736201
C     -1.147891    0.136260    2.623263
C      4.338557   -2.925958    1.717786
C     -4.889703    3.332376    1.365255
C     -2.460022   -2.526354   -2.005025
C     -6.528519   -0.881184   -0.051249
C      5.949524    1.119352   -1.911036
C      4.990190    0.076270   -2.357209
C      4.040373   -1.051741   -0.320877
C      2.748431    0.603894   -1.384653
C     -2.807627    1.706938    0.571671
C     -2.014009   -0.198248   -0.523953
C      0.045901    0.530380    1.788516
C      3.916344   -0.129660   -1.340098
C     -1.724453    0.935989    0.204883
C      3.026178   -1.215225    0.602413
C     -4.105052    1.366234    0.231122
C     -3.295446   -0.558442   -0.874921
C      1.730780    0.440201   -0.458636
C     -0.338856    1.306395    0.572638
C     -4.366416    0.218880   -0.502974
C      1.860772   -0.483306    0.558024
O      3.147898   -2.150212    1.638807
O     -5.185474    2.170747    0.618887
O     -3.559322   -1.716842   -1.616081
O     -5.676607   -0.099808   -0.831226
O      0.827314   -0.629301    1.474109
O      0.559062    1.174333   -0.501170
H      7.654721   -0.097102   -1.912645
H      7.892572    1.656318   -1.415170
H     -0.822610   -0.184272    3.634386
H     -1.750044   -0.653755    2.176870
H     -1.730958    1.083721    2.793707
H      4.320943   -3.569020    2.599743
H      5.184717   -2.182630    1.747777
H      4.502415   -3.513359    0.788600
H     -4.260152    3.032599    2.236389
H     -5.829946    3.810675    1.723246
H     -4.300230    4.001608    0.720966
H     -1.842471   -2.808149   -1.124266
H     -2.876147   -3.435172   -2.484151
H     -1.790630   -1.991172   -2.716903
H     -6.309438   -1.964859   -0.153870
H     -6.581151   -0.565227    1.006275
H     -7.565762   -0.747074   -0.464843
H      5.543337    2.108412   -1.729677
H      5.505567   -0.884045   -2.597683
H      4.558726    0.430271   -3.326138
H      4.956433   -1.632077   -0.279948
H      2.627446    1.331005   -2.171739
H     -2.588382    2.605547    1.148058
H     -1.176044   -0.825731   -0.826871
H      0.703138    1.163623    2.419140
H     -0.342170    2.394773    0.846404
