54

C      6.876600    1.425782   -1.905718
C      0.058881    1.520314    1.354660
C      5.091723   -0.789215    3.107569
C     -3.401485    3.155974   -1.790038
C     -4.738318   -3.603666    0.537870
C     -6.962759    0.426736   -0.240757
C      5.617154    1.101537   -2.144898
C      5.154936   -0.289711   -1.916185
C      4.393444   -0.487479    0.420401
C      2.732812   -0.242804   -1.240030
C     -2.403545    0.728460   -0.609960
C     -2.855881   -1.454949    0.137236
C     -0.185220    0.053909    1.654366
C      4.068089   -0.338905   -0.911349
C     -1.939303   -0.439905   -0.045581
C      3.403890   -0.536797    1.382899
C     -3.745593    0.869952   -0.977922
C     -4.194197   -1.331803   -0.222699
C      1.733432   -0.293195   -0.262337
C     -0.542173   -0.645815    0.359842
C     -4.624120   -0.152802   -0.783258
C      2.062826   -0.442028    1.070520
O      3.708081   -0.686996    2.741388
O     -4.221379    2.039853   -1.545547
O     -5.100050   -2.359101   -0.032608
O     -5.982893   -0.052138   -1.139154
O      1.067759   -0.492815    2.050589
O      0.386045   -0.194123   -0.614783
H      7.611948    0.716332   -1.542591
H      7.204635    2.439453   -2.074671
H     -0.854919    2.128189    1.606885
H      0.387816    1.689832    0.309085
H      0.863085    1.946369    1.998401
H      5.167705   -1.077007    4.176178
H      5.600863   -1.564204    2.488124
H      5.619989    0.160470    2.920559
H     -4.046472    4.032846   -1.974054
H     -2.769748    3.346610   -0.904215
H     -2.764413    3.031890   -2.689690
H     -4.108475   -3.430111    1.453830
H     -4.115610   -4.212503   -0.146687
H     -5.630571   -4.185732    0.833058
H     -6.567394    0.530175    0.784760
H     -7.374952    1.376246   -0.636433
H     -7.799390   -0.300707   -0.232562
H      4.951983    1.878133   -2.506944
H      6.028996   -0.907208   -1.644836
H      4.770126   -0.730112   -2.879122
H      5.430378   -0.565840    0.713891
H      2.475575   -0.127366   -2.273457
H     -1.746894    1.545460   -0.776071
H     -2.505228   -2.383491    0.581527
H     -0.958474   -0.086679    2.432066
H     -0.329313   -1.739313    0.486079
