38

C     -4.770445    0.782567    0.501790
C     -0.808390   -1.478341    0.329743
C      5.425178   -0.988431    0.136514
C      5.484210    0.136111   -0.651226
C      4.199489   -1.364447    0.666169
C      4.349573    0.863717   -0.901972
C      3.072112   -0.644878    0.419358
C     -1.562832    0.897264    0.379428
C     -0.295994    1.418896   -0.259113
C      1.899161    1.260599   -0.634344
C     -4.193411   -0.495540    0.958478
C      3.137044    0.481953   -0.371264
C     -2.221374   -0.592758   -1.483048
C     -1.934232   -0.493694   -0.033352
N     -3.065003   -0.932994    0.706527
O     -5.021430   -1.314085    1.776464
O     -3.336069   -1.054264   -1.876933
O     -1.303401   -0.194689   -2.444646
O      0.818765    0.666097    0.013262
H     -5.887192    0.731445    0.590733
H     -4.547503    0.968005   -0.549718
H     -4.437356    1.636162    1.150409
H     -0.410382   -1.253634    1.339437
H     -0.005285   -1.479770   -0.402052
H     -1.279898   -2.480509    0.379059
H      6.282602   -1.605086    0.372027
H      6.439440    0.443566   -1.073947
H      4.156927   -2.254425    1.288698
H      4.355873    1.755375   -1.517633
H      2.120955   -0.961321    0.847364
H     -2.362503    1.583044    0.034175
H     -1.530340    0.971194    1.473439
H     -0.108493    2.417870    0.243740
H     -0.422417    1.607568   -1.318868
H      1.724166    1.420331   -1.709706
H      2.080768    2.279658   -0.185594
H     -4.658136   -2.165292    2.183859
H     -1.384178   -0.567265   -3.383387
