65

C     -9.451744    2.736904    0.447551
C      9.058470    2.158943    2.323378
C     -9.144343    1.279668    0.761091
C     -7.697570    1.013612    0.405068
C     -7.403697   -0.432973    0.718914
C     -5.967679   -0.796674    0.392565
C     -4.992036   -0.011956    1.134122
C     -4.100515    0.768017    0.591279
C     -3.953447    0.968283   -0.827509
C     -2.778358    0.608128   -1.564774
C     -1.670817    0.022496   -1.234622
C     -1.285005   -0.476165    0.078437
C     -0.971790   -1.957818    0.066780
C      0.069239   -2.453938   -0.816748
C      1.467342   -2.051742   -0.743392
C      1.898715   -0.663685   -0.943762
C      3.418211   -0.679114   -0.825275
C      4.059758    0.018792    0.082931
C      6.232330   -0.861043   -0.796266
C      8.344153    0.419458   -1.010857
C      9.127572    1.119689    1.237223
C      5.537075   -0.023626    0.164467
C      7.715203   -0.909727   -0.770745
O      9.844369    0.101502    1.371135
O      6.060255    0.659124    1.046205
O      8.278197   -1.581309    0.276351
O      8.397006    1.275269    0.070635
H    -10.508475    2.879858    0.136459
H     -9.225702    3.312155    1.358249
H     -8.774202    3.028777   -0.388635
H     10.112197    2.401766    2.565789
H      8.538070    1.764572    3.209707
H      8.560617    3.042035    1.916383
H     -9.355533    1.055133    1.822744
H     -9.836230    0.668980    0.140854
H     -7.059973    1.676490    0.998448
H     -7.587049    1.163877   -0.688200
H     -7.657082   -0.599877    1.785402
H     -8.096871   -1.058323    0.120405
H     -5.872605   -1.861314    0.813652
H     -5.859727   -0.927953   -0.665615
H     -4.978675   -0.059569    2.249336
H     -3.438195    1.336786    1.310171
H     -4.154651    2.114166   -0.981207
H     -4.900339    0.577312   -1.332736
H     -2.810133    0.887069   -2.663721
H     -0.872949   -0.148071   -2.019368
H     -0.503240    0.161563    0.511310
H     -2.115661   -0.401209    0.854788
H     -0.877135   -2.256288    1.139685
H     -1.938262   -2.469362   -0.237915
H     -0.344381   -2.388247   -1.886558
H      0.070905   -3.599643   -0.695973
H      2.031794   -2.673669   -1.519647
H      1.963702   -2.409100    0.222685
H      1.596280    0.098997   -0.240317
H      1.733158   -0.367776   -2.016532
H      3.969788   -1.290287   -1.518777
H      3.475798    0.622389    0.765592
H      5.878517   -1.941811   -0.672760
H      5.861916   -0.635192   -1.851447
H      7.756318    0.963356   -1.822239
H      9.350598    0.261903   -1.490665
H      8.052815   -1.548743   -1.700192
H      7.723703   -1.630866    1.081082
