51

C      5.131801    0.830864   -0.757724
C     -3.909490    0.690326   -0.258698
C     -2.558355   -0.860543   -1.459464
C      2.210203    0.543523   -2.255540
C      1.033469    0.821260   -1.374923
C     -1.881875   -1.243748    2.052423
C     -2.978179   -1.150108    1.015340
C      2.598139   -1.593780   -0.955948
C      0.211395    1.162321    1.661968
C      3.946549    0.257723   -0.640375
C      3.186854   -0.446371   -1.732255
C      0.747236   -0.215508   -0.372732
C     -0.580765   -1.203194    1.329457
C     -1.526836    0.723530    0.178107
C      3.074538    0.146185    0.520973
C     -1.930660    1.700353    1.223145
C      1.748568   -1.669641    1.384582
C     -2.677953   -0.198866   -0.103680
C      1.997791   -0.804160    0.232827
C     -0.281212    0.129094    0.675761
O      3.281007    0.795397    1.567862
O     -2.240829    2.916340    0.616437
O      2.649367   -2.450725    1.768798
O     -0.907097    1.849025    2.113318
O      0.540297   -1.626024    2.038155
H      5.618220    1.314514    0.055180
H      5.624678    0.810673   -1.702575
H     -3.707321    1.570922   -0.877777
H     -4.657534    0.058977   -0.824169
H     -4.413996    0.909435    0.698856
H     -2.009941   -1.787633   -1.497609
H     -3.550493   -0.983012   -1.941786
H     -2.017354   -0.112488   -2.109468
H      2.761576    1.523278   -2.374643
H      1.941239    0.248680   -3.291860
H      1.086016    1.819212   -0.891162
H      0.156962    0.900074   -2.088295
H     -1.987758   -0.579438    2.903919
H     -1.965862   -2.290545    2.472716
H     -3.915077   -0.909147    1.560598
H     -3.145300   -2.156082    0.553301
H      3.399749   -2.251900   -0.633953
H      1.800543   -2.106572   -1.510776
H      0.706064    0.680981    2.502261
H      0.839911    1.937184    1.176300
H      3.844422   -0.814809   -2.518598
H      0.267735   -1.080945   -0.931052
H     -0.702946   -1.940506    0.478838
H     -1.331864    1.264832   -0.777890
H     -2.822207    1.387123    1.836066
H     -2.703425    3.483918    1.265763
