35

C     -4.305383   -1.013797   -0.779467
C     -2.824673    1.823393    0.138552
C      5.615625   -0.419856   -0.299508
C      4.865255   -1.578799   -0.202853
C      4.972001    0.804512   -0.414657
C      3.492903   -1.507071   -0.221290
C      3.574950    0.854048   -0.431975
C     -0.723140    1.088730    1.102618
C      0.313035    0.027784    1.247184
C     -3.407054   -1.253830    0.359977
C      2.838347   -0.283321   -0.336094
C     -1.342790    0.370918   -1.199645
C     -1.870645    0.648225    0.155399
N     -2.438671   -0.541732    0.684460
O     -3.671259   -2.395331    1.160598
O     -1.318019   -0.842428   -1.609200
O     -0.872586    1.325474   -2.078714
S      1.069668   -0.282769   -0.340721
H     -5.300410   -0.687454   -0.394783
H     -4.531601   -2.033309   -1.242542
H     -3.914611   -0.343070   -1.533376
H     -2.801816    2.283204    1.158210
H     -3.842159    1.513902   -0.115722
H     -2.394042    2.574946   -0.556239
H      6.698186   -0.489858   -0.280067
H      5.378074   -2.529455   -0.122578
H      5.549893    1.706603   -0.494045
H      2.912668   -2.391848   -0.147878
H      3.131121    1.839950   -0.522684
H     -0.304345    2.007961    0.695646
H     -1.243979    1.271397    2.059116
H      1.124115    0.464451    1.916015
H     -0.029349   -0.862667    1.763157
H     -3.212901   -2.475637    2.067098
H     -1.186406    1.326734   -3.065515
