51

C      4.479543   -1.911500    0.836693
C     -3.994761   -0.726557   -0.456722
C     -2.648058    0.635552   -1.948544
C      2.401004   -1.403626   -1.528578
C      1.296359   -1.408255   -0.449130
C     -1.968741    2.325015    0.253374
C     -3.083527    1.351742    0.373139
C      3.095395    0.902573   -0.870416
C     -0.414392    0.159147    1.837733
C      3.710402   -0.921197    0.428569
C      3.536343   -0.560874   -1.021919
C      0.915634    0.027933   -0.305457
C     -0.622271    1.798538    0.059150
C     -1.516496   -0.555210   -0.096671
C      2.908003   -0.010323    1.221379
C     -1.878331   -1.340719    1.129831
C      1.674399    2.072000    0.795981
C     -2.773968    0.181728   -0.523887
C      2.079227    0.749368    0.282551
C     -0.395731    0.319706    0.340958
O      2.931816    0.093302    2.458626
O     -1.043111   -2.410166    1.383686
O      2.569835    2.867374    1.169580
O     -1.672596   -0.405317    2.143364
O      0.344378    2.477245    0.884669
H      4.581851   -2.142976    1.885518
H      5.031308   -2.523289    0.145983
H     -4.725726   -0.332594   -1.194445
H     -4.511183   -0.615601    0.537378
H     -3.779255   -1.758389   -0.720596
H     -3.285460    0.027169   -2.624157
H     -1.614424    0.581214   -2.335761
H     -3.039037    1.668922   -2.016818
H      1.971158   -0.871682   -2.410821
H      2.742078   -2.406065   -1.766656
H      1.832384   -1.810076    0.456770
H      0.542396   -2.085588   -0.834940
H     -1.954380    3.013955    1.151246
H     -2.241399    3.028326   -0.591163
H     -4.037101    1.798497   -0.035387
H     -3.335433    1.052276    1.401411
H      2.626075    1.283594   -1.774164
H      3.957752    1.455407   -0.498807
H      0.303226   -0.581105    2.209365
H     -0.319556    1.085410    2.406501
H      4.454646   -0.663281   -1.595181
H      0.808452    0.405353   -1.371265
H     -0.262526    2.028552   -0.988474
H     -1.264550   -1.195982   -0.974298
H     -2.905702   -1.709043    1.152597
H     -1.505949   -3.040481    1.988205
