35

C     -3.542294    2.913754   -0.574440
C     -2.647956   -0.910586    1.822534
C      4.875086    0.281957   -1.475731
C      5.229099    0.132605   -0.168555
C      3.568444    0.051030   -1.841745
C      4.289926   -0.241848    0.757038
C      2.626634   -0.328080   -0.893283
C     -0.589464   -0.047243    0.874360
C      0.191753   -1.235060    1.298706
C     -2.561072    1.765489   -0.613765
C      2.965159   -0.484466    0.434738
C     -2.270038   -1.324979   -0.492731
C     -2.019932   -0.325249    0.532518
N     -2.720913    0.876538    0.254698
O     -1.597489    1.807791   -1.589622
O     -3.044583   -1.003533   -1.458883
O     -1.769497   -2.610455   -0.563424
S      1.883475   -0.960162    1.722979
H     -4.588052    2.490878   -0.567887
H     -3.391187    3.540350    0.316041
H     -3.482865    3.523639   -1.491361
H     -3.733404   -0.661132    1.813751
H     -2.118420   -0.503626    2.695952
H     -2.583779   -2.019290    1.791373
H      5.628758    0.579874   -2.203487
H      6.270837    0.320402    0.101988
H      3.291186    0.169961   -2.876646
H      4.632459   -0.344556    1.783207
H      1.623907   -0.505523   -1.189370
H     -0.053679    0.553720    0.124437
H     -0.642426    0.638978    1.779681
H      0.182403   -2.016984    0.482906
H     -0.325627   -1.707042    2.159588
H     -1.199371    0.950231   -1.915436
H     -2.377080   -3.367387   -0.830130
