39

C     -2.824238   -1.147803    1.444798
C     -3.538449    1.120791    1.096060
C     -0.327118    2.414792    2.492093
C      1.127295   -0.840226   -3.501262
C      3.065843   -1.779016   -0.868077
C      4.235795   -2.049983   -0.184055
C     -1.236236    0.544721   -1.180349
C      1.521398    0.598619    1.400550
C     -2.908075   -0.148970    0.597337
C      2.121014   -0.889697   -0.367946
C      0.049590    0.268161   -0.507594
C     -2.414606   -0.230012   -0.783933
C      0.344766    0.865666    0.706295
C      2.407461   -0.293477    0.840254
C      4.422769   -1.405566    1.004570
C      0.958142   -0.612607   -1.031954
O     -3.490367    0.242604   -1.592411
O      5.490258   -1.637026    1.654025
O     -0.518715    1.766948    1.291122
O      0.746089   -1.252198   -2.236039
O      3.534486   -0.567765    1.478150
H     -2.382664   -2.075034    1.133633
H     -3.183748   -1.045005    2.446457
H     -3.105162    1.349779    2.088751
H     -4.646362    0.949008    1.260358
H     -3.417882    1.941232    0.384272
H     -1.319281    2.664075    3.000927
H      0.291661    1.931846    3.255193
H      0.112637    3.456865    2.354407
H      2.225475   -0.732587   -3.632968
H      0.570527    0.037245   -3.863587
H      0.851654   -1.672712   -4.214233
H      2.814568   -2.235198   -1.828379
H      4.959236   -2.757677   -0.606959
H     -1.083416    0.614859   -2.275552
H     -1.474458    1.624383   -0.892574
H      1.772315    1.061773    2.355233
H     -2.371385   -1.316706   -1.040223
H     -3.380815    1.235897   -1.676394
