31

C     -4.293571    0.972555    0.259650
C     -3.196598    0.738190    3.585902
C     -3.336189    0.715854    0.774742
C     -1.996536    1.149119    2.740076
C      2.184755    1.782322   -2.068755
C      1.174454    1.399281   -1.219967
C      3.033007    0.839923   -2.619759
C     -2.015663    0.378757    1.479105
C      0.948919    0.087141   -0.872210
C      2.818501   -0.508393   -2.277301
C      1.797891   -0.842989   -1.425942
C      1.557704   -2.243364   -1.067020
C     -0.123530   -0.310946    0.042313
N      3.698468   -1.468581   -2.849794
O      0.781989   -2.893194   -1.803221
O      2.132776   -2.865484    0.017852
O     -0.288828   -1.501735    0.339448
O      4.237304   -1.256757   -4.106516
O      3.968237   -2.489339   -2.205910
O     -0.975520    0.620542    0.599971
H     -5.226427    1.225388   -0.261464
H     -2.998736    1.018858    4.640329
H     -4.140260    1.213574    3.247026
H     -3.298506   -0.380645    3.593110
H     -2.022226    2.252690    2.601194
H     -1.111705    0.834592    3.342550
H      2.344721    2.845906   -2.328156
H      0.524517    2.150764   -0.798395
H      3.834534    1.085406   -3.281989
H     -2.082489   -0.699082    1.704065
H      2.069005   -3.850354    0.219066
