40

C     -3.321664    2.677869   -0.576785
C     -2.466290    1.941946   -1.589029
C     -3.200375   -1.574086    1.872769
C     -3.418677   -1.687094    0.526462
C     -2.392305   -0.571030    2.335790
C      4.400922   -2.663439    0.588101
C      3.307858   -3.029472   -0.141670
C     -2.813924   -0.777891   -0.352516
C     -1.794333    0.328044    1.466130
C      4.551004   -1.344483    0.910971
C      2.405614   -2.082383   -0.524800
C     -0.571623    0.459733   -1.887112
C     -1.383821    1.165530   -0.833603
C     -2.004591    0.225876    0.117836
C      3.646367   -0.328262    0.538524
C      2.560354   -0.713972   -0.190426
C      3.896584    1.033977    0.930501
C      1.560607    0.221240   -0.635594
O      4.985884    1.206136    1.623780
O      3.208995    2.174030    0.712629
O      1.467113    1.433412   -0.481249
O      0.484847   -0.319347   -1.384051
H     -2.658064    2.977676    0.263677
H     -3.769531    3.554086   -1.068886
H     -4.067333    1.976700   -0.165965
H     -3.087731    1.220370   -2.140161
H     -1.955023    2.662862   -2.234663
H     -3.667781   -2.275994    2.545883
H     -4.057896   -2.482714    0.176960
H     -2.220645   -0.481218    3.387105
H      5.111334   -3.418345    0.888160
H      3.108228   -4.056633   -0.443488
H     -3.037240   -0.935756   -1.403032
H     -1.166359    1.106443    1.834535
H      5.421857   -1.029926    1.496413
H      1.526829   -2.378724   -1.111887
H     -1.260366   -0.260561   -2.376365
H     -0.247420    1.147655   -2.696004
H     -0.771362    1.903032   -0.307538
H      3.689956    2.994713    0.328598
