31

C      4.001527   -1.669973    1.223175
C      4.516720    1.541495   -0.598238
C      3.322820   -0.783635    0.767705
C      3.176486    0.949389   -0.954794
C     -2.237975   -1.971095   -1.829413
C     -1.099049   -1.418823   -1.326982
C     -3.476033   -1.551991   -1.387686
C      2.496364    0.299411    0.229760
C     -1.136141   -0.432545   -0.370164
C     -3.508462   -0.555578   -0.421130
C     -2.350768    0.000721    0.084687
C     -2.442974    1.047286    1.102312
C      0.075850    0.163085    0.171094
N     -4.778631   -0.125884    0.031664
O     -2.503032    2.247012    0.715527
O     -2.460966    0.687306    2.444702
O      0.039675    1.056134    1.038024
O     -4.913032    1.149213    0.505527
O     -5.747068   -0.880882    0.001816
O      1.288493   -0.274947   -0.290121
H      4.597821   -2.465600    1.645887
H      4.421698    2.301697    0.190042
H      5.258214    0.770495   -0.398270
H      4.860126    2.088117   -1.521613
H      3.328143    0.153194   -1.718013
H      2.488333    1.728655   -1.341041
H     -2.148130   -2.741625   -2.578463
H     -0.147796   -1.754943   -1.679946
H     -4.365689   -2.001509   -1.797685
H      2.300240    1.067263    0.981317
H     -2.856765    1.378558    3.096154
