38

C      1.373105   -1.474946   -3.077634
C     -1.975367   -0.048406   -3.163923
C     -2.034920   -1.472307   -1.219321
C     -2.440703    0.898539   -0.943397
C      0.035732    1.617626   -2.251807
C      0.676788   -0.712949   -2.409620
C      1.807650   -0.579789    4.637775
C      1.306022   -1.743867    4.112582
C      1.969260    0.542540    3.862781
C      0.963023   -1.771653    2.792134
C      1.618456    0.527097    2.486092
C      1.118583   -0.619310    1.965266
C      1.942594    1.716783    1.738390
C      0.606340   -0.701116    0.608044
C     -1.595577   -0.113923   -1.664381
C     -0.126195    0.201071   -1.611944
O      1.885095    1.808221    0.529272
O      2.361953    2.890245    2.416640
O      0.274242   -1.890520    0.222545
O      0.413200    0.267975   -0.311084
H      1.960027   -2.119853   -3.651102
H     -2.097143   -1.068041   -3.560865
H     -1.158397    0.413030   -3.719475
H     -2.929091    0.518851   -3.276395
H     -1.461498   -2.317049   -1.635888
H     -2.269634   -1.539852   -0.145295
H     -3.086354   -1.684270   -1.682021
H     -1.918251    1.802536   -0.644003
H     -3.317109    1.165393   -1.560638
H     -2.871664    0.457722    0.001478
H     -0.981474    1.973712   -2.454233
H      0.649541    2.278963   -1.668959
H      0.496500    1.456694   -3.250162
H      2.075902   -0.574492    5.695087
H      1.190995   -2.610174    4.743550
H      2.360298    1.449005    4.269029
H      0.566059   -2.666146    2.341481
H      2.612013    3.722661    1.895838
