32

C      1.191881   -2.061348   -1.802467
C     -1.458809    1.169913    0.524042
C     -3.652934    0.242479   -0.243706
C     -2.355190   -0.808277    1.621934
C      3.433478    1.482439    0.793071
C      3.001625    0.298132    1.383058
C      2.911755    1.883653   -0.405712
C      2.042043   -0.448959    0.727719
C      1.956262    1.136505   -1.054877
C      0.487015   -0.876886   -1.151020
C      1.526148   -0.037620   -0.472909
C     -2.271060   -0.065665    0.305106
O     -0.447073   -1.275377   -0.230159
O     -1.637043   -0.884485   -0.599212
H      1.580250   -2.697943   -1.000358
H      0.428479   -2.552120   -2.441250
H      2.023532   -1.647940   -2.406707
H     -2.135675    2.009900    0.803005
H     -0.969535    1.439029   -0.429463
H     -0.756050    1.012447    1.359778
H     -4.090969   -0.695494   -0.594828
H     -3.497916    0.910241   -1.127713
H     -4.254610    0.779288    0.502180
H     -1.367394   -0.798221    2.105648
H     -3.060066   -0.284637    2.329542
H     -2.757261   -1.808348    1.424426
H      4.181739    2.048248    1.321567
H      3.429485   -0.009281    2.343586
H      3.269187    2.816516   -0.844615
H      1.735655   -1.365676    1.226111
H      1.521424    1.417118   -1.997895
H     -0.008373   -0.327631   -1.967881
