34

C     -4.141820   -1.493033    0.267030
C     -4.552468    0.882718    0.116617
C     -1.754143    2.019724    0.297952
C      4.815207   -0.240641   -1.276051
C      3.800195    0.347074   -1.980912
C      4.649370   -0.795787   -0.040027
C      2.564341    0.367940   -1.397566
C     -2.314124   -0.232330   -0.668142
C     -3.674313   -0.275149   -0.089141
C     -1.336153    0.574372    0.152324
C      3.361326   -0.769930    0.559423
C      2.333166   -0.193407   -0.115533
C      3.283311   -1.382683    1.870098
C      0.984500   -0.119283    0.414871
O      4.336868   -1.895038    2.399454
O      2.171944   -1.492353    2.660403
O      0.608012   -0.550148    1.500366
O     -0.028724    0.495067   -0.346424
H     -5.138724   -1.610314    0.693112
H     -3.572047   -2.385189    0.152493
H     -5.586825    0.536952    0.341761
H     -4.644050    1.450726   -0.846754
H     -4.251717    1.514926    0.960505
H     -2.493242    2.362005   -0.422731
H     -2.021990    2.223908    1.370761
H     -0.830991    2.660407    0.142824
H      5.820206   -0.279718   -1.704551
H      3.976755    0.782039   -2.973013
H      5.466458   -1.258595    0.506008
H      1.717283    0.813910   -1.893466
H     -2.407106    0.334773   -1.644360
H     -1.952573   -1.227648   -0.915433
H     -1.353616    0.087708    1.171503
H      2.165688   -1.253002    3.656811
