21

C     -2.645064    1.479836    0.396519
C     -0.133421   -2.394484   -0.384002
C     -1.477967    0.962417    0.711613
C     -1.308833   -0.511339    0.612604
C     -0.203786   -0.883020   -0.375986
C      1.689597    0.641981   -0.587614
C      2.943721    1.258225   -0.056427
F      2.667291    1.911433    1.131700
F      3.410713    2.184340   -0.961566
F      3.865831    0.234534    0.162245
O      1.249052    0.976226   -1.712904
O      0.979851   -0.298918    0.121097
H     -3.458705    0.861452    0.075589
H     -2.785122    2.542434    0.462177
H      0.238528   -2.763399    0.584425
H     -1.159100   -2.759871   -0.617554
H      0.513235   -2.745175   -1.228480
H     -0.661462    1.614414    1.037010
H     -1.008092   -0.853262    1.637103
H     -2.273602   -0.976241    0.353858
H     -0.442666   -0.481582   -1.361409
