21

C      2.333817    0.938662    1.449953
C      0.018141   -1.769422   -1.594248
C      1.848903    0.994013    0.234697
C      1.548306   -0.253299   -0.473488
C      0.117748   -0.415058   -0.875946
C     -1.809953    0.525752    0.173713
C     -2.804557    0.579952    1.261335
F     -3.515225   -0.600603    1.376073
F     -3.701933    1.588798    1.039967
F     -2.163200    0.869422    2.472767
O     -1.889832    1.360030   -0.789833
O     -0.789024   -0.410830    0.172817
H      2.507466   -0.007971    1.917784
H      2.560601    1.837922    1.985683
H      0.528490   -1.628508   -2.559684
H     -1.024095   -2.110353   -1.674063
H      0.627526   -2.501583   -1.012793
H      1.685163    1.989139   -0.210358
H      1.891965   -1.118435    0.108722
H      2.170246   -0.254803   -1.411502
H     -0.140553    0.387172   -1.591599
