40

C     -1.625941   -3.190573    0.716195
C     -2.237947    0.923319    0.799214
C     -3.590534   -0.451279   -0.665915
C     -1.940078    1.087362   -1.611760
C     -0.994463   -1.858792   -1.500896
C     -1.883228   -1.893844    0.706862
C      4.231322    1.128392    2.353096
C      3.140732    0.441040    2.818745
C      4.282425    1.502441    1.043788
C      2.114091    0.136710    1.966747
C      3.227636    1.191740    0.160562
C      2.143097    0.514817    0.599591
C      3.388719    1.627723   -1.193669
C      1.015874    0.153656   -0.209993
C     -2.175168    0.140387   -0.497460
C     -1.207399   -0.968258   -0.309682
O      4.480722    2.270323   -1.473043
O      2.588912    1.495675   -2.293296
O      0.908588    0.429167   -1.402098
O     -0.055138   -0.557564    0.343158
H     -2.093220   -3.852847    1.424365
H     -0.933188   -3.597448    0.000442
H     -2.507881    1.999541    0.602014
H     -2.997488    0.484712    1.450310
H     -1.236933    0.891763    1.317380
H     -4.316884    0.234119   -0.233192
H     -3.629665   -1.483624   -0.315905
H     -3.776694   -0.477212   -1.764961
H     -2.944145    1.548922   -1.887237
H     -1.541571    0.666437   -2.545785
H     -1.323827    1.974868   -1.359166
H     -1.813425   -2.599791   -1.543948
H     -1.004293   -1.305768   -2.461422
H     -0.041187   -2.397914   -1.360836
H     -2.578180   -1.499030    1.430576
H      5.021003    1.350239    3.054897
H      3.043114    0.114997    3.856306
H      5.139843    2.036113    0.703119
H      1.256678   -0.396925    2.307405
H      2.465721    2.186406   -3.024507
