37

C      5.252666    1.917596    0.809641
C     -1.567211   -3.591326    0.649399
C      3.873580    2.215324    0.251294
C     -4.286594    2.962794   -0.301692
C     -3.994610    2.338211    0.888863
C     -3.804205    2.413056   -1.479550
C     -3.237760    1.185277    0.935091
C     -3.048189    1.260199   -1.425571
C      2.601905   -2.407649   -0.986133
C     -0.935033   -2.331833    1.137125
C     -2.745391    0.620487   -0.243148
C      2.329391   -1.225222   -0.316856
C     -1.953236   -0.586649   -0.192041
C      0.397175   -2.112931    0.441703
C      3.307309   -0.081643   -0.402210
N     -1.695299   -1.146835    0.914419
N      1.203921   -1.204248    0.356356
O     -1.475393   -1.129447   -1.370276
O      4.348170   -0.165596   -1.052547
O      3.027813    1.097635    0.269807
S      1.138049   -3.396339   -0.547395
H      5.716624    2.895524    1.069370
H      5.219128    1.275468    1.695030
H      5.856526    1.500027   -0.025618
H     -2.569884   -3.346364    0.231050
H     -0.989797   -4.081343   -0.143751
H     -1.668789   -4.325564    1.501230
H      3.996366    2.636179   -0.776780
H      3.409762    3.017084    0.858624
H     -4.882944    3.870905   -0.335904
H     -4.377446    2.776880    1.808322
H     -4.009509    2.872606   -2.449575
H     -3.022071    0.713000    1.885692
H     -2.682214    0.852545   -2.380683
H      3.427007   -2.734767   -1.613730
H     -0.746222   -2.408793    2.244117
H     -1.413596   -2.144252   -1.491834
