31

C      2.070032   -1.668500   -1.929950
C     -3.843149    1.764116   -0.444875
C     -2.646491    2.031739   -1.056130
C      4.106895    1.423168    1.058061
C     -3.963480    0.654121    0.353269
C     -1.616351    1.159946   -0.832609
C      2.986395    0.746950    0.892286
C      5.217107    1.176903    0.296982
C      1.848510   -1.148642   -0.500645
C     -2.886001   -0.227213    0.566248
C     -1.679943    0.024419   -0.037395
C      2.924107   -0.260276   -0.096357
C     -3.146961   -1.366500    1.430595
C     -0.509952   -0.806925    0.111378
O     -2.362640   -2.270085    1.753930
O     -4.435484   -1.518218    2.004159
O     -0.364611   -1.831275    0.759543
O      0.649305   -0.397276   -0.584347
S      4.601124   -0.160276   -0.769218
H      2.199293   -0.749289   -2.559681
H      1.093495   -2.100524   -2.231929
H      2.910774   -2.361069   -1.988947
H     -4.663429    2.450133   -0.617259
H     -2.508594    2.911272   -1.703861
H      4.157938    2.236114    1.854666
H     -4.928672    0.475711    0.820812
H     -0.682053    1.383108   -1.319523
H      2.033740    0.922096    1.509001
H      6.228292    1.612795    0.270538
H      1.747771   -2.027507    0.136580
H     -4.536969   -2.079017    2.854680
