41

C     -0.518157   -2.669870   -1.610148
C     -0.349021   -2.793657   -0.130720
C      5.964304    0.715794   -0.673261
C      4.820224    1.049003   -1.353237
C      5.896573   -0.173739    0.383629
C     -5.128148    2.766054    0.917100
C     -4.639126    2.357067    2.132524
C      3.577344    0.518023   -1.014452
C      4.675171   -0.704809    0.727744
C     -4.546251    2.322666   -0.241291
C     -3.580770    1.514331    2.149214
C      2.279218   -0.972789    0.469139
C      1.104036   -0.764488   -0.067603
C      3.507608   -0.362041    0.030530
C     -0.119158   -1.454188    0.467529
C     -3.441665    1.444089   -0.218525
C     -2.950570    1.031587    0.985856
C     -2.859164    1.059483   -1.495986
C     -1.871531    0.110985    1.188643
O     -3.432669    1.484553   -2.566540
O     -1.765224    0.297005   -1.715064
O     -1.502977   -0.132795    2.390396
O     -1.180352   -0.549137    0.250612
H     -1.586504   -2.488510   -1.831022
H      0.033393   -1.796063   -2.039085
H     -0.138214   -3.594035   -2.087470
H      0.445004   -3.507372    0.168849
H     -1.285219   -3.205062    0.334586
H      6.904590    1.143506   -0.960943
H      4.870372    1.745482   -2.181459
H      6.797187   -0.438910    0.922362
H     -5.986237    3.448787    0.886028
H     -5.067682    2.682916    3.074843
H      2.687056    0.777674   -1.544028
H      4.622181   -1.399396    1.552979
H     -4.919499    2.635239   -1.195975
H     -3.193282    1.189914    3.131671
H      2.277450   -1.673000    1.313592
H      1.022317   -0.085915   -0.906219
H      0.048632   -1.508523    1.584980
H     -1.471239   -0.019860   -2.623459
