37

C      6.766947    1.702117    0.600998
C     -0.319067   -2.927590   -1.231032
C      5.937541    0.634918   -0.054206
C     -5.225180    2.163254   -0.147615
C     -4.081003    1.934206   -0.876939
C     -5.620713    1.230004    0.790674
C     -3.369542    0.781038   -0.645422
C     -4.912120    0.101131    1.007755
C      1.691478    1.111765    0.662753
C     -1.039900   -1.570278   -0.906030
C     -3.746232   -0.160368    0.283421
C      2.185526    0.076009   -0.092444
C     -3.012735   -1.390105    0.537538
C      0.124974   -0.719448   -0.448117
C      3.637277   -0.082120   -0.334230
N     -2.009847   -1.777596    0.005123
N      1.265675   -0.737174   -0.565132
O     -3.574333   -2.233557    1.556898
O      4.115431   -1.026373   -1.025305
O      4.555584    0.806406    0.190320
S     -0.133030    0.783984    0.605861
H      7.523465    2.038692   -0.150625
H      6.142866    2.575700    0.917185
H      7.307603    1.328959    1.470121
H      0.677952   -2.741941   -1.630881
H     -0.911673   -3.462149   -1.998787
H     -0.258759   -3.547762   -0.332019
H      6.087047    0.615760   -1.149583
H      6.277937   -0.351311    0.372945
H     -5.823020    3.069754   -0.299804
H     -3.759372    2.663020   -1.619524
H     -6.522857    1.405176    1.369551
H     -2.466962    0.626312   -1.229078
H     -5.244711   -0.629842    1.760291
H      2.117591    1.930425    1.184588
H     -1.327866   -1.170450   -1.907519
H     -3.055968   -3.050565    1.826692
