90

C    -10.266079    0.810374   -0.329287
C      8.579317   -3.096836   -0.787194
C     -9.911342   -0.603636   -0.054239
C     -9.339996   -0.980960    1.233157
C     -8.035021   -0.538996    1.693817
C     -7.531449    0.771182    1.993801
C     -7.407556    1.850945    0.989725
C     -6.584649    1.373244   -0.212390
C     -6.414783    2.479171   -1.226180
C     -5.658630    1.961007   -2.417952
C     -4.317721    1.449017   -2.022759
C     -3.452515    2.502450   -1.412691
C     -2.104492    1.914918   -0.979865
C     -1.374568    1.345151   -2.142613
C     -0.038538    0.700993   -1.747927
C     -0.262606   -0.428552   -0.792780
C      0.931427   -1.170899   -0.349935
C      1.984710   -0.388110    0.385900
C      3.143461   -1.295621    0.778044
C      3.846067   -1.893890   -0.389799
C      4.923519   -2.849487    0.146274
C      5.677710   -3.479017   -0.985185
C      7.147869    2.961685    3.308933
C      7.556093    3.319563    2.047554
C      6.468244   -2.566772   -1.845033
C      6.982534    1.618763    3.534626
C      7.780304    2.392474    1.076270
C      7.650631   -1.930665   -1.192760
C      7.217253    0.652109    2.531572
C      7.619337    1.002844    1.267061
C      7.184721   -0.729293    2.965626
C      7.754928    0.104613    0.153937
O      6.674544   -1.000723    4.109150
O      7.663240   -1.790233    2.265272
O      8.282709    0.646948   -0.906213
O      7.439587   -1.203059   -0.017107
H    -11.309339    0.898125   -0.778610
H     -9.538679    1.327207   -0.968328
H    -10.356702    1.356853    0.629377
H      9.620879   -2.757289   -0.754509
H      8.497284   -3.939714   -1.511299
H      8.295463   -3.492173    0.211765
H    -10.838770   -1.230013   -0.311852
H     -9.193929   -0.947974   -0.891614
H     -9.326016   -2.152718    1.230606
H    -10.129942   -0.812760    2.084130
H     -7.247486   -1.000841    0.930154
H     -7.724422   -1.215018    2.623382
H     -7.972413    1.207065    2.967329
H     -6.431289    0.607632    2.360272
H     -8.299876    2.349731    0.681774
H     -6.729580    2.700242    1.473824
H     -5.574206    1.025130    0.156305
H     -7.089149    0.508204   -0.681657
H     -7.430692    2.849410   -1.524552
H     -5.878722    3.362192   -0.762083
H     -6.300030    1.142698   -2.852553
H     -5.609748    2.725088   -3.229558
H     -3.859021    1.018345   -2.959040
H     -4.361620    0.591669   -1.325425
H     -3.930106    2.869406   -0.486688
H     -3.297675    3.398691   -2.048561
H     -2.348127    1.195721   -0.188484
H     -1.566266    2.753898   -0.508618
H     -1.932781    0.615214   -2.746898
H     -1.105493    2.172742   -2.837557
H      0.356009    0.290468   -2.710075
H      0.653748    1.464880   -1.406855
H     -0.941953   -1.177488   -1.298375
H     -0.837927   -0.124686    0.106331
H      1.354353   -1.738352   -1.217759
H      0.571051   -1.988437    0.346443
H      2.399694    0.446547   -0.176058
H      1.572303    0.021590    1.328197
H      2.741302   -2.034899    1.489855
H      3.849469   -0.646178    1.340899
H      3.236821   -2.368652   -1.150715
H      4.431931   -1.085549   -0.921798
H      4.451390   -3.665000    0.734641
H      5.606492   -2.326804    0.811480
H      6.386593   -4.215986   -0.489783
H      5.022811   -4.151372   -1.599304
H      6.981096    3.727697    4.054248
H      7.703174    4.392659    1.833908
H      6.879506   -3.118518   -2.753563
H      5.819211   -1.721534   -2.223377
H      6.660210    1.322654    4.516723
H      8.105396    2.680794    0.067894
H      8.198767   -1.298670   -1.948205
H      7.958748   -2.677553    2.615407
