76

C      8.075558    3.174745    1.912479
C      9.144387    2.145320    1.553268
C      8.756147    0.854507    2.195231
C      7.394522    0.424351    1.688451
C      7.336323    0.204685    0.217708
C      5.944905   -0.209448   -0.207369
C      5.510920   -1.484721    0.443444
C      4.140486   -1.867069   -0.068858
C      3.162241   -0.797566    0.255151
C      1.754912   -1.126551   -0.208809
C      1.222399   -2.380198    0.421102
C     -0.178130   -2.702461   -0.040529
C     -0.248983   -2.905271   -1.529865
C     -1.639741   -3.221724   -1.964855
C     -2.653920   -2.167651   -1.650931
C     -2.290627   -0.869351   -2.322691
C     -3.292904    0.226607   -2.031462
C     -4.667544   -0.099595   -2.488505
C     -5.603876    1.034329   -2.181980
C     -5.713452    1.368781   -0.715383
C     -6.683713    2.507887   -0.480503
C     -6.770137    2.827148    0.982614
C     -7.240432    1.673201    1.795941
C     -8.585070    1.170813    1.450623
N     -9.333152    1.733173    0.574257
O     -7.238223    2.098894    3.146293
O     -9.102814    0.031278    2.088451
H      7.210016    3.064710    1.202296
H      8.473756    4.206273    1.754190
H      7.716176    3.070501    2.940292
H     10.138357    2.496563    1.938428
H      9.178982    2.034810    0.461451
H      9.499909    0.047850    2.028111
H      8.712981    1.023783    3.292442
H      7.099701   -0.520021    2.225937
H      6.608922    1.156857    1.957722
H      8.049032   -0.599187   -0.075115
H      7.615464    1.141333   -0.344245
H      5.864230   -0.311870   -1.311300
H      5.263754    0.621553    0.131188
H      5.443176   -1.285741    1.558013
H      6.260660   -2.282039    0.254736
H      4.270128   -1.987845   -1.184174
H      3.844085   -2.874477    0.286272
H      3.193420   -0.458035    1.304105
H      3.437527    0.108882   -0.367630
H      1.107939   -0.287384    0.118432
H      1.769762   -1.143120   -1.296984
H      1.167404   -2.230205    1.520438
H      1.853840   -3.271628    0.261759
H     -0.846407   -1.841800    0.208745
H     -0.503650   -3.643760    0.446930
H      0.379281   -3.798922   -1.820029
H      0.086584   -1.999925   -2.061489
H     -1.972954   -4.194414   -1.530388
H     -1.657044   -3.376083   -3.069609
H     -3.639692   -2.546178   -1.955277
H     -2.731974   -1.971115   -0.550941
H     -1.300028   -0.511668   -1.980551
H     -2.220537   -1.027786   -3.416624
H     -2.937752    1.158215   -2.506760
H     -3.321127    0.421490   -0.926382
H     -4.696371   -0.260788   -3.590282
H     -5.048051   -0.987714   -1.935571
H     -5.355411    1.951706   -2.762333
H     -6.656856    0.785303   -2.509925
H     -4.705074    1.744698   -0.388446
H     -5.930620    0.478100   -0.099197
H     -7.638016    2.248738   -0.930423
H     -6.255359    3.421218   -1.000687
H     -7.471622    3.694444    1.104064
H     -5.742273    3.170226    1.290190
H     -6.544612    0.812359    1.775632
H    -10.277330    1.368809    0.341233
H     -8.163842    2.025786    3.523686
H     -9.828569   -0.486618    1.613131
