39

C     -2.241548    3.069468    1.787713
C      3.940011    2.243823    0.756502
C     -2.715224   -3.863458   -1.013934
C      2.889611    2.602367   -0.056812
C      4.106772    0.910162    1.036155
C     -1.500434   -3.817214   -1.661834
C     -2.988050   -2.990471    0.007128
C      2.026789    1.645361   -0.577316
C      3.270456   -0.054561    0.536319
C     -0.541061   -2.875352   -1.276184
C     -2.032750   -2.072130    0.371821
C     -1.776635    2.155426   -0.480947
C      1.275970   -0.689561   -0.833170
C     -1.659959    2.199006    0.999013
C      2.220808    0.330122   -0.279195
C     -0.784575   -1.985008   -0.254599
C      0.204231   -0.955316    0.200582
C     -1.292974    0.800995   -0.803713
C     -0.784691    1.106739    1.446934
N     -0.581490    0.280651    0.338717
O     -1.494371    0.235260   -1.910429
O     -0.295902    0.918092    2.589168
H     -2.871728    3.843867    1.375163
H     -2.095156    3.020502    2.866469
H      4.597936    3.013480    1.148701
H     -3.476136   -4.589404   -1.298913
H      2.754050    3.665505   -0.281689
H      4.937242    0.633347    1.678146
H     -1.270176   -4.502603   -2.472645
H     -3.947964   -3.000726    0.545120
H      1.212034    1.998610   -1.231344
H      3.389379   -1.109993    0.748079
H      0.419679   -2.840372   -1.791547
H     -2.224990   -1.364876    1.182595
H     -2.850903    2.207353   -0.787261
H     -1.175085    2.962581   -0.950279
H      1.839348   -1.636291   -1.050781
H      0.865371   -0.260902   -1.766354
H      0.652114   -1.234480    1.164624
