65

C      9.172651    0.586857   -2.083647
C     -8.000530   -0.452010   -2.586975
C     -2.223436    1.865908    1.959594
C      9.163380    0.030573   -0.683429
C     -7.730848    1.003484   -2.463788
C     -1.159393    0.717638    1.970403
C      7.746175    0.263730   -0.128632
C     -7.699229    1.474017   -1.068375
C      6.823230   -0.475030   -1.043383
C     -6.647225    0.977221   -0.145377
C      5.402938   -0.288203   -0.591781
C      5.234065   -0.814523    0.791030
C      3.808953   -0.671826    1.295355
C      2.809700   -1.404191    0.453381
C      1.439342   -1.121446    1.147613
C      0.347908   -1.799878    0.409140
C     -6.564720   -0.467367    0.124569
C     -0.973822   -1.652502    1.002832
C     -5.502365   -0.847571    1.130195
C     -1.695050   -0.401499    1.163502
C     -4.131040   -0.520596    0.750039
O     -3.897974   -0.012814   -0.377511
O     -3.033736   -0.732006    1.557906
H     10.209672    0.965044   -2.303760
H      8.837023   -0.169324   -2.795432
H      8.459182    1.452319   -2.141077
H     -8.837035   -0.580751   -3.360141
H     -8.424042   -0.944078   -1.693803
H     -7.117328   -1.005239   -2.939847
H     -1.778060    2.766035    2.426933
H     -3.094785    1.574709    2.567543
H     -2.467074    2.127936    0.910502
H      9.883821    0.506209   -0.019001
H      9.277832   -1.078841   -0.697806
H     -6.815871    1.318598   -3.041012
H     -8.551128    1.593497   -2.989020
H     -0.307944    1.244934    1.446667
H     -0.943774    0.535897    3.016805
H      7.717688   -0.147928    0.912466
H      7.502747    1.325015   -0.136533
H     -8.692567    1.313992   -0.542721
H     -7.615421    2.618643   -1.028515
H      6.916815   -0.160638   -2.100683
H      7.033012   -1.582635   -0.970513
H     -6.822975    1.541839    0.830873
H     -5.669107    1.365980   -0.583912
H      5.093170    0.780291   -0.595400
H      4.760127   -0.791364   -1.342306
H      5.630083   -1.831027    0.950702
H      5.826162   -0.141576    1.481666
H      3.582558    0.412506    1.345842
H      3.789642   -1.089208    2.317065
H      2.949717   -2.497622    0.568584
H      2.783269   -1.118794   -0.594876
H      1.586913   -1.506130    2.175732
H      1.351470   -0.043521    1.081080
H      0.299220   -1.460196   -0.669067
H      0.575959   -2.916261    0.285355
H     -7.525865   -0.845848    0.509569
H     -6.312852   -1.039968   -0.800416
H     -0.999168   -2.212404    2.023878
H     -1.692808   -2.348967    0.413651
H     -5.699394   -0.411522    2.133974
H     -5.551101   -1.968538    1.254702
H     -1.836757    0.033767    0.109590
