39

C     -3.739018    3.403039    1.234643
C      4.825468   -1.126374   -0.363563
C     -1.610657   -3.642157    0.203130
C      4.104133   -1.443620    0.763660
C      4.316228   -0.160546   -1.195254
C     -1.829233   -2.874950   -0.933561
C     -0.865655   -3.110905    1.235270
C      2.893889   -0.795530    1.040283
C      3.132706    0.468290   -0.918654
C     -1.312472   -1.603941   -1.034180
C     -0.366772   -1.834799    1.094966
C     -2.944844    2.699917   -1.063457
C      1.092341    0.844255    0.485792
C     -2.973341    2.682991    0.431863
C      2.376254    0.165669    0.221526
C     -0.548102   -1.038770    0.005335
C     -0.091255    0.315194   -0.212963
C     -1.674598    2.019254   -1.398510
C     -1.969621    1.695908    0.825323
N     -1.178000    1.292854   -0.295647
O     -1.127731    2.096240   -2.534836
O     -1.843023    1.270220    2.023142
H     -3.694292    3.327639    2.305139
H     -4.438698    4.095829    0.801591
H      5.773021   -1.634293   -0.579485
H     -2.018845   -4.648657    0.283906
H      4.499317   -2.201631    1.420723
H      4.864466    0.101110   -2.079494
H     -2.425024   -3.325979   -1.734322
H     -0.687639   -3.707234    2.135308
H      2.430371   -1.117700    1.960381
H      2.754700    1.218854   -1.581999
H     -1.515435   -1.053475   -1.943330
H      0.191339   -1.426217    1.917661
H     -3.833155    2.094176   -1.391483
H     -3.005686    3.732573   -1.464923
H      0.935708    1.025709    1.579967
H      1.241134    1.897750    0.090296
H      0.262023    0.299307   -1.334242
