90

C     11.780695    2.706623   -0.175724
C     -7.392321   -2.389635    1.343479
C     11.133104    1.592363    0.645445
C     10.248812    0.793375   -0.262000
C      9.578266   -0.327817    0.492427
C      8.724920    0.124107    1.627703
C      7.639487    1.039634    1.156660
C      6.757909    0.313643    0.150382
C      5.653470    1.257667   -0.283667
C      4.785625    0.577898   -1.294246
C      4.192284   -0.672274   -0.690709
C      3.266972   -1.362987   -1.680036
C      2.722820   -2.594883   -1.045699
C      1.966664   -2.396635    0.217563
C      0.753504   -1.474543    0.066629
C     -0.194359   -2.031035   -0.917689
C     -1.391872   -1.216473   -1.165222
C     -2.414674   -0.998445   -0.151141
C     -2.104058   -0.381705    1.144577
C     -3.375217   -0.196802    1.983337
C     -4.347175    0.702720    1.323885
C     -5.602677    0.870377    2.190669
C    -10.385240    2.580407   -3.048963
C     -9.189720    2.183664   -3.581396
C     -6.284720   -0.444869    2.401945
C    -10.754467    2.222391   -1.788560
C     -8.346643    1.416314   -2.843508
C     -6.718614   -1.023229    1.073624
C     -9.871173    1.426560   -1.035812
C     -8.675064    1.013985   -1.530297
C    -10.345286    1.072155    0.276472
C     -7.691286    0.219026   -0.828771
O    -11.490068    1.498308    0.694762
O     -9.716917    0.291280    1.219311
O     -6.635056   -0.103015   -1.474089
O     -7.701286   -0.258606    0.446432
H     12.859420    2.648181   -0.002345
H     11.368306    3.706967    0.089248
H     11.565784    2.557850   -1.256236
H     -6.556906   -3.108278    1.514253
H     -8.042629   -2.669858    0.500601
H     -7.930542   -2.296738    2.308196
H     10.499542    2.095987    1.405282
H     11.885150    0.915936    1.091248
H      9.564643    1.465389   -0.788595
H     10.863255    0.291533   -1.058775
H     10.407666   -0.938781    0.936384
H      8.976155   -0.944673   -0.196037
H      9.311112    0.567866    2.465893
H      8.289213   -0.815043    2.079770
H      8.062788    1.937346    0.623366
H      7.027347    1.459758    1.979155
H      6.386376   -0.577487    0.670116
H      7.314157   -0.002693   -0.753312
H      4.992956    1.501505    0.596304
H      6.088011    2.186304   -0.707928
H      5.403726    0.322825   -2.201363
H      3.970135    1.250384   -1.642961
H      4.982984   -1.427911   -0.465801
H      3.707544   -0.402716    0.245546
H      2.495469   -0.677621   -2.067551
H      3.901528   -1.671288   -2.539536
H      2.103000   -3.135916   -1.788552
H      3.575561   -3.275649   -0.828102
H      2.560816   -2.066775    1.066384
H      1.530379   -3.390027    0.494744
H      1.084977   -0.473204   -0.311144
H      0.408524   -1.308053    1.081753
H     -0.464600   -3.107034   -0.690372
H      0.336446   -2.148533   -1.926483
H     -1.087920   -0.200003   -1.615221
H     -1.956769   -1.646434   -2.087255
H     -2.951461   -1.987946    0.027124
H     -3.238977   -0.398399   -0.654948
H     -1.539225   -1.129473    1.799229
H     -1.612286    0.587268    1.082174
H     -3.752184   -1.158957    2.336403
H     -3.007783    0.332006    2.910145
H     -4.704884    0.430606    0.336358
H     -3.899998    1.731107    1.205387
H     -6.233262    1.606880    1.655140
H     -5.226046    1.289089    3.151834
H    -11.068251    3.195712   -3.630407
H     -8.898626    2.472044   -4.587762
H     -7.161743   -0.348724    3.099009
H     -5.633582   -1.185841    2.892300
H    -11.719662    2.549014   -1.368805
H     -7.400164    1.116341   -3.297855
H     -5.846048   -1.240287    0.443531
H    -10.166060   -0.513099    1.659731
