38

C     -5.328376   -0.205870    0.980434
C     -0.512581    0.191420   -2.277917
C      4.197207    0.608663    0.620477
C      3.497592   -0.242280    1.654765
C      3.286515    1.766994    0.286254
C      2.363282   -0.948316    0.981735
C      1.837113    1.397294    0.320691
C     -4.041743   -1.489345   -0.696288
C      0.189145   -0.447369    0.057736
C     -4.277962   -0.334162    0.216763
C     -0.748728    0.282792   -0.833137
C      1.620711   -0.072041   -0.009156
C     -2.555785   -1.503534   -0.729497
C     -3.154838    0.588720    0.097331
N     -2.108106   -0.174569   -0.493627
O     -1.829602   -2.538387   -0.935330
O     -3.113092    1.806597    0.442604
H     -6.123851   -0.937094    1.013548
H     -5.423144    0.659086    1.611009
H     -0.016986   -0.714584   -2.648137
H      0.071702    1.056426   -2.686767
H     -1.494818    0.237888   -2.822987
H      5.177442    0.930528    0.990611
H      4.346446   -0.021259   -0.277208
H      4.221783   -1.008028    1.992545
H      3.190360    0.355602    2.539862
H      3.455184    2.540914    1.086665
H      3.596509    2.255460   -0.660065
H      2.779813   -1.864983    0.483561
H      1.691677   -1.337248    1.778544
H      1.322200    1.991696   -0.466485
H      1.386564    1.648371    1.291321
H     -4.475360   -2.425876   -0.321260
H     -4.403473   -1.226887   -1.724978
H      0.146685   -1.550106   -0.188762
H     -0.139414   -0.387543    1.116439
H     -0.726249    1.350913   -0.528084
H      2.096177   -0.239884   -0.992730
