49

C     -4.633930   -1.909574    0.855947
C      0.273560    1.549132   -0.416831
C      1.815864   -1.739589   -0.116019
C     -3.200098   -2.366016    0.604910
C      6.855127   -0.554351    0.175009
C     -4.795173    2.911337    0.252601
C      5.890694   -1.266252    0.856118
C      6.444325    0.473563   -0.666829
C     -4.266801    2.500211    1.453683
C     -4.361063    2.257594   -0.891410
C      4.537478   -0.978888    0.718014
C      5.103745    0.732315   -0.781987
C     -3.332222    1.473096    1.549740
C     -3.443742    1.247458   -0.809816
C     -0.669589   -0.315855    0.888371
C      2.723704    0.435846   -0.347385
C      0.411879    0.110668   -0.054473
C      4.120212    0.018802   -0.098167
C     -2.908286    0.831034    0.407456
C     -2.489593   -1.425497   -0.285474
N      1.732884   -0.328434    0.314875
N     -1.984502   -0.235322    0.371688
O     -2.295108   -1.554432   -1.491600
H     -4.960698   -1.338916   -0.021475
H     -5.248306   -2.817648    1.021009
H     -4.628453   -1.279045    1.782214
H     -0.773996    1.850333   -0.237288
H      0.478983    1.765830   -1.478029
H      0.859189    2.212609    0.275136
H      2.682350   -1.940155   -0.753911
H      0.922156   -2.001859   -0.760652
H      1.699707   -2.366909    0.773069
H     -2.642843   -2.416121    1.545798
H     -3.278362   -3.351268    0.075533
H      7.930441   -0.771244    0.275639
H     -5.532126    3.726318    0.184538
H      6.230485   -2.072199    1.514284
H      7.230685    1.008680   -1.175597
H     -4.620674    3.016352    2.329290
H     -4.783346    2.585947   -1.845955
H      3.843440   -1.554003    1.271802
H      4.813480    1.552303   -1.460695
H     -2.937263    1.170773    2.485674
H     -3.111674    0.743876   -1.729772
H     -0.586830    0.352368    1.784072
H     -0.512844   -1.361002    1.258825
H      2.664549    1.493998   -0.031437
H      2.548752    0.373256   -1.444162
H      0.183830   -0.449121   -1.024395
