35

C     -4.452401   -0.814955   -1.701341
C      0.253435   -1.473830    0.935416
C      3.449355   -0.285163   -0.445719
C      2.432148   -0.385645   -1.516137
C      2.986838    0.121791    0.903007
C      1.281134    0.572495   -1.371066
C      2.018921    1.244081    0.864325
C     -3.756753    0.832024    0.096372
C     -3.561311   -0.229503   -0.920144
C     -0.104126   -0.069312    0.698731
C      0.821563    0.829438   -0.008775
C     -2.575242    0.667774    0.993200
C     -2.116009   -0.517065   -0.888042
N     -1.502240    0.026486    0.272405
O     -2.536791    1.031528    2.174299
O     -1.557361   -1.176476   -1.814476
H     -4.143192   -1.576936   -2.393714
H     -5.497242   -0.552789   -1.670348
H     -0.683993   -2.098958    0.771868
H      0.487138   -1.715992    2.016806
H      0.988268   -1.940813    0.274443
H      4.306266    0.356211   -0.741599
H      3.908725   -1.313142   -0.334016
H      2.963770   -0.097114   -2.479711
H      2.084027   -1.415845   -1.735725
H      3.928367    0.418980    1.472390
H      2.578377   -0.702067    1.522846
H      1.722724    1.578128   -1.731785
H      0.515191    0.372073   -2.108902
H      2.416023    2.179171    0.455040
H      1.626148    1.402280    1.894017
H     -4.675214    0.663581    0.660407
H     -3.707686    1.824545   -0.393046
H     -0.149495    0.412666    1.762283
H      0.250637    1.832351   -0.069442
