38

C      3.453719    1.731334   -2.253982
C      1.324183   -2.976009    0.409357
C     -3.233794    1.802627   -0.103532
C     -2.310094    1.254615   -1.165095
C     -3.331519    0.926879    1.099205
C     -1.846211   -0.138999   -0.745477
C     -2.027711    0.420993    1.614484
C      3.620207    0.517111   -0.047017
C     -0.354217   -1.215129    0.954319
C      3.067697    0.810337   -1.393633
C      0.636971   -1.717296   -0.076576
C     -1.058307    0.026462    0.521013
C      2.491048   -0.154753    0.654093
C      1.976504   -0.163153   -1.569228
N      1.648231   -0.730349   -0.318876
O      2.381835   -0.160064    1.927736
O      1.474031   -0.386741   -2.717419
H      2.929080    1.803843   -3.203218
H      4.271107    2.388287   -2.006759
H      1.446390   -2.983150    1.518780
H      2.367640   -3.013437   -0.003870
H      0.792978   -3.893888    0.102232
H     -2.959702    2.822078    0.204762
H     -4.274472    1.889048   -0.533636
H     -1.398335    1.899000   -1.155425
H     -2.750376    1.263651   -2.170455
H     -4.030284    0.092758    0.884824
H     -3.802429    1.538784    1.919142
H     -1.243875   -0.567917   -1.564703
H     -2.761512   -0.741698   -0.528615
H     -2.256640   -0.479836    2.256473
H     -1.561958    1.156559    2.314713
H      4.406465   -0.270558   -0.175456
H      3.994172    1.396588    0.479817
H     -1.084097   -2.010830    1.231448
H      0.202080   -0.986985    1.885678
H      0.125006   -1.993661   -1.028240
H     -0.323811    0.843499    0.405379
