34

C     -1.109333   -0.400328    1.644712
C      5.380729    0.856488    0.627991
C      5.525945   -0.361916    0.014470
C      4.119833    1.340512    0.914416
C      4.390399   -1.071167   -0.299376
C     -5.127328    0.116058    0.404395
C     -4.887653   -0.991927   -0.547606
C     -1.189664    0.746032   -0.588067
C     -0.634644   -0.357345    0.235428
C      2.986751    0.621587    0.595655
C      3.141284   -0.599673   -0.019627
C     -2.672128    0.754675   -0.736115
C      1.562997    0.873826    0.772140
C      1.798070   -1.139878   -0.241681
N      0.812047   -0.235366    0.244957
O      1.085669    1.891915    1.297432
O      1.541352   -2.232545   -0.778155
S     -3.566700    0.895412    0.808424
S     -3.370727   -0.723243   -1.438598
H     -0.358665   -1.007057    2.231972
H     -2.073372   -0.923796    1.791636
H     -1.107581    0.596320    2.145447
H      6.269862    1.445010    0.890284
H      6.507916   -0.752801   -0.215545
H      4.075120    2.306781    1.398488
H      4.503426   -2.036306   -0.785279
H     -5.669344   -0.214719    1.338131
H     -5.794582    0.901360   -0.033178
H     -5.733317   -0.995908   -1.294226
H     -4.949382   -2.011914   -0.072156
H     -0.740134    0.699489   -1.593044
H     -0.887639    1.721393   -0.152605
H     -0.882682   -1.330072   -0.241494
H     -2.946525    1.619103   -1.373753
