42

C     -2.040544   -4.134209   -1.012650
C     -1.216272    4.729866    1.232631
C     -2.816311   -3.194865   -1.627929
C     -1.252495   -3.775223    0.049897
C     -2.143676    3.796408    1.606781
C     -0.217905    4.370243    0.359951
C      4.745203   -1.185840   -0.777328
C      4.707554   -1.136651    0.592550
C     -2.795216   -1.896701   -1.170176
C     -1.243433   -2.462603    0.498070
C     -2.037889    2.519150    1.087578
C     -0.101440    3.101921   -0.164232
C      3.619182   -0.825095   -1.489712
C      3.591520   -0.742015    1.278820
C     -2.018479   -0.070886    0.367505
C     -2.019994   -1.488964   -0.106737
C     -1.039285    2.156765    0.213664
C      2.455273   -0.415032   -0.830371
C      2.458243   -0.379603    0.537152
C     -1.001867    0.765003   -0.296821
C      1.161428    0.008542   -1.308783
C      1.147737    0.073548    0.958143
N      0.355132    0.310388   -0.184808
O      0.847245    0.081541   -2.545742
O      0.779168    0.229302    2.139195
H     -2.081242   -5.150239   -1.399866
H     -1.262377    5.747478    1.617652
H     -3.444049   -3.463645   -2.468602
H     -0.650092   -4.541134    0.515523
H     -2.924218    4.078772    2.289474
H      0.508407    5.125815    0.075423
H      5.636238   -1.500089   -1.294335
H      5.599632   -1.423297    1.124949
H     -3.413817   -1.167123   -1.667289
H     -0.604531   -2.242278    1.335935
H     -2.793066    1.785221    1.403718
H      0.681003    2.803983   -0.853711
H      3.617338   -0.853517   -2.580088
H      3.554396   -0.700290    2.375083
H     -2.038152   -0.095582    1.450407
H     -3.029062    0.331190    0.046771
H     -1.279289    0.829745   -1.377691
