54

C      6.160182   -2.129111    2.601498
C     -3.685761    5.112031   -2.439475
C     -4.178528    5.354389   -1.163245
C     -2.753703    4.135405   -2.710106
C     -3.678751    4.550316   -0.148657
C      2.207711    0.638301    2.268532
C      3.056613   -0.391394    0.346963
C      3.213015    0.078628    3.012973
C      4.084501   -0.970776    1.075972
C     -0.751070   -4.677495    0.198683
C      0.700331   -4.364495    0.265324
C     -3.245615   -1.318638   -1.768144
C     -2.058106   -1.888461   -2.462004
C      1.083679    1.091963    0.108501
C      2.101030    0.413746    0.890258
C      4.161040   -0.727646    2.440695
C     -2.289639    3.361570   -1.655425
C     -2.751833    3.568575   -0.374376
C     -0.318124    0.704761    0.153302
C     -1.305252    2.262838   -1.662231
C     -2.058371    2.591979    0.457487
C     -0.461840   -1.825291    0.472410
C     -0.881644   -0.597280   -0.234797
N     -1.186396    1.807751   -0.331932
O     -0.682413    1.807398   -2.651021
O     -2.261829    2.515245    1.715808
O      5.194247   -1.303089    3.205245
S     -1.704761   -3.167652    0.208496
S      0.941291   -2.688115   -0.378157
S     -2.734205   -0.506228   -0.260860
S     -0.617208   -0.913150   -2.038722
H      6.564305   -1.659547    1.692180
H      7.008674   -2.244285    3.331341
H      5.753030   -3.128723    2.310586
H     -4.084933    5.749568   -3.230510
H     -4.901340    6.123941   -1.003729
H     -2.399084    3.979389   -3.704625
H     -4.054707    4.730179    0.845885
H      1.445142    1.285122    2.720932
H      3.063244   -0.625767   -0.729945
H      3.263050    0.272797    4.065995
H      4.826947   -1.608284    0.599953
H     -1.021720   -5.264376    1.119651
H     -0.952651   -5.321915   -0.682540
H      1.280573   -5.110609   -0.330547
H      1.072663   -4.369793    1.328316
H     -3.881471   -0.686342   -2.420804
H     -3.903083   -2.188078   -1.474302
H     -2.216172   -1.766121   -3.571650
H     -1.927874   -2.980901   -2.316855
H      1.386598    1.135444   -0.994240
H      1.141710    2.190554    0.467959
H     -0.551669    0.736038    1.317806
H     -0.209823   -1.774367    1.516144
