34

C     -2.436797    2.481214   -0.745117
C     -1.038203    1.982216   -0.578099
C      4.964139   -0.329689    0.978049
C      4.968940   -1.113399   -0.157376
C      3.800558    0.289142    1.374322
C      3.795404   -1.256260   -0.870936
C     -4.238357   -1.143175    0.336351
C     -3.213631   -2.166296   -0.038434
C      2.628504    0.124076    0.629170
C      2.609805   -0.650260   -0.502783
C     -0.933928    0.493833   -0.370882
C      1.295309    0.663410    0.836910
C      1.259270   -0.633159   -1.060501
C     -1.657057    0.014672    0.842360
N      0.476155    0.188457   -0.205782
O      0.983214    1.427521    1.811340
O      0.901550   -1.245197   -2.103131
S     -3.417096    0.364201    0.810069
S     -1.693126   -1.819479    0.812818
H     -2.899718    2.788219    0.238276
H     -3.071124    1.755138   -1.292990
H     -2.390276    3.415957   -1.373892
H     -0.453730    2.278472   -1.485398
H     -0.549217    2.501109    0.276106
H      5.854531   -0.185469    1.571454
H      5.886523   -1.605860   -0.476337
H      3.792750    0.904571    2.264208
H      3.770950   -1.865097   -1.765154
H     -4.864930   -0.951073   -0.559794
H     -4.950120   -1.531923    1.119243
H     -3.597258   -3.166124    0.318108
H     -3.097445   -2.278615   -1.142202
H     -1.315175   -0.019925   -1.280892
H     -1.170417    0.288793    1.790918
