33

C     -3.191090    1.456725    0.171410
C      5.361902   -0.774228    0.165807
C      5.402331    0.618839    0.169287
C      4.179534   -1.465292    0.275217
C      4.215717    1.332647    0.286513
C     -1.275136    0.111848   -0.617101
C     -0.636752    0.080354    0.743761
C     -4.857054   -1.118756   -0.023576
C     -2.773238    0.183124   -0.569177
C      3.003039   -0.738334    0.391540
C      3.023387    0.634365    0.396834
C     -3.415747   -1.006758   -0.026858
C      1.617162   -1.167115    0.521777
C      1.672172    1.135158    0.528661
N     -6.300407   -0.826746    1.951139
N     -5.576206   -0.828542    0.958781
N      0.803630    0.011876    0.605775
O     -2.732041   -1.937738    0.438492
O      1.186100   -2.353836    0.556730
O      1.304993    2.355673    0.570203
H     -2.681858    2.312359   -0.313037
H     -2.878741    1.354494    1.219944
H     -4.288284    1.606122    0.073736
H      6.304191   -1.291588    0.072975
H      6.333821    1.123135    0.082883
H      4.146347   -2.542141    0.272704
H      4.222338    2.409696    0.291563
H     -0.963936   -0.792142   -1.172043
H     -0.875559    0.990593   -1.161846
H     -0.866867    1.024293    1.306750
H     -0.956354   -0.743680    1.377863
H     -5.361498   -1.479624   -0.933927
H     -3.145896    0.325216   -1.613054
