47

C      5.602107   -0.208323    1.812901
C      7.320352   -0.894718    0.025656
C      1.032747    1.598838   -0.915446
C     -7.766541   -0.462725    0.543985
C     -7.480474    0.245815    1.705073
C      3.791223    0.610315   -0.172917
C     -1.045187   -0.776496   -0.283066
C      5.125650    0.052655   -0.564206
C      2.694686   -0.223540   -0.737774
C      0.351554   -0.841739   -0.727606
C     -6.791616   -0.707002   -0.379496
C     -6.199476    0.693457    1.902425
C     -1.858162    0.393742   -0.763654
C      5.984562   -0.335367    0.367135
C      1.298564    0.237947   -0.404229
C     -5.491156   -0.267764   -0.207059
C     -5.227654    0.438377    0.960625
C     -4.258226   -0.374111   -1.003151
C     -3.811727    0.784262    0.905407
N     -3.236485    0.293471   -0.275789
O     -4.218528   -0.961359   -2.100375
O     -3.203715    1.429619    1.793628
H      6.413765   -0.593997    2.458435
H      4.689091   -0.810157    2.012520
H      5.428058    0.844873    2.077449
H      7.157902   -1.841028   -0.563954
H      7.857909   -1.185982    0.929965
H      7.917356   -0.163937   -0.532281
H      2.032561    2.024152   -1.264802
H      0.339952    1.615949   -1.810569
H      0.665382    2.344780   -0.212233
H     -8.783974   -0.832182    0.361694
H     -8.280132    0.420026    2.414523
H      3.724359    0.643224    0.955080
H      3.814945    1.665928   -0.490304
H     -1.571963   -1.683304   -0.729015
H     -1.185607   -0.943458    0.815187
H      5.420908   -0.047415   -1.597527
H      2.825696   -0.283482   -1.848993
H      2.826350   -1.260706   -0.369007
H      0.352268   -1.017573   -1.849660
H      0.798517   -1.804764   -0.313423
H     -7.057700   -1.259566   -1.264004
H     -5.944339    1.249772    2.799193
H     -1.911052    0.498556   -1.856393
H     -1.448240    1.364915   -0.366626
H      1.305489    0.330022    0.741956
