42

C      0.807440   -0.414649    2.001949
C     -6.308910    0.373870    1.848315
C     -4.190274   -1.328995   -2.963681
C      6.549470   -0.388406   -1.459322
C      6.687356    0.951774   -1.155650
C      5.331725   -1.025164   -1.202492
C      5.618729    1.622027   -0.607761
C     -2.061643    0.429511    1.182598
C     -3.424125    0.420281    1.418346
C     -2.439662   -0.432134   -0.975653
C      0.859439    0.465750    0.745611
C     -1.531662    0.004708   -0.017860
C      4.269631   -0.344354   -0.654109
C      4.416101    0.989724   -0.355024
C     -4.312197   -0.011618    0.469633
C     -3.796834   -0.438894   -0.734575
C     -0.098360    0.012520   -0.267141
C      2.911816   -0.714007   -0.278427
C      3.160801    1.480958    0.210872
N      2.225952    0.411144    0.255584
O      0.327238   -0.380448   -1.381888
O      2.405712   -1.861442   -0.403338
O      2.894703    2.637507    0.606994
O     -5.685915   -0.037401    0.664718
O     -4.699638   -0.882471   -1.710776
H      0.676126    0.165285    2.914644
H      1.721006   -1.065520    2.052572
H     -0.031718   -1.145865    1.842446
H     -7.305837   -0.110132    1.973848
H     -6.474422    1.463052    1.890018
H     -5.681488    0.015818    2.694295
H     -3.609479   -0.514193   -3.437984
H     -3.568942   -2.224993   -2.819030
H     -5.052019   -1.579363   -3.613132
H      7.388281   -0.891319   -1.883297
H      7.646585    1.454087   -1.357764
H      5.256448   -2.064000   -1.448892
H      5.773828    2.679016   -0.384388
H     -1.442734    0.784822    1.981506
H     -3.810411    0.763480    2.380163
H     -2.039868   -0.764923   -1.913245
H      0.637750    1.494956    1.092873
