33

C     -3.219826    1.434409   -0.778497
C      5.333845   -0.683907   -0.688705
C      5.334517   -0.989429    0.649393
C      4.199726   -0.130642   -1.268776
C      4.192863   -0.732400    1.380073
C     -1.333975    0.046951    0.121804
C     -0.435105    1.212098    0.385988
C     -5.043387   -0.873934   -0.000223
C     -2.795797    0.381102    0.203503
C      3.051871    0.131167   -0.548960
C      3.056061   -0.175231    0.787254
C     -3.587278   -0.845264   -0.073312
C      1.752321    0.693516   -0.899634
C      1.746433    0.190987    1.312664
N     -6.040713   -2.925533    1.020148
N     -5.574355   -1.891000    0.516984
N      0.944425    0.726567    0.269862
O     -3.016387   -1.921359   -0.386237
O      1.397485    1.089142   -2.056496
O      1.411835    0.040540    2.516485
H     -4.335200    1.505172   -0.712218
H     -2.985592    1.178545   -1.825723
H     -2.850635    2.450402   -0.502907
H      6.215837   -0.874644   -1.287480
H      6.228065   -1.419049    1.078836
H      4.187923    0.112529   -2.315477
H      4.216375   -0.981520    2.433764
H     -1.096749   -0.359981   -0.882156
H     -1.134274   -0.754665    0.858877
H     -0.557031    1.674660    1.360474
H     -0.546931    1.999943   -0.383354
H     -5.648921   -0.049229   -0.377545
H     -3.067426    0.740055    1.217219
