41

C     -6.586677    0.569994    1.061060
C      6.429835    0.792027   -0.649120
C      6.432266    0.537402    0.713949
C      5.238684    0.703353   -1.325546
C      5.250242    0.208269    1.331167
C     -2.541061    0.048358   -1.518566
C     -2.464603    0.976261    0.674953
C     -3.904143   -0.083279   -1.385599
C     -3.831231    0.827462    0.768228
C     -0.351165    0.788400   -0.541920
C     -0.947908   -2.595799   -0.719598
C     -1.798953    0.580381   -0.490309
C     -4.597921    0.297043   -0.248268
C      4.069535    0.372199   -0.685175
C      4.048272    0.113240    0.678262
C      0.401286   -0.412245   -0.067731
C      0.081088   -1.572822   -0.934942
C      2.678847    0.209973   -1.163194
C      2.658281   -0.208806    1.054610
Br    -1.888785   -2.475791    0.937633
N      1.839202   -0.141516   -0.097695
O      0.767160   -1.693009   -1.958097
O      2.319764    0.367369   -2.348152
O      2.363043   -0.485633    2.248783
O     -5.973593    0.152194   -0.142924
H     -6.375891    1.643996    1.195264
H     -6.046383    0.023019    1.880604
H     -7.670671    0.322633    1.077519
H      7.367039    1.056740   -1.158947
H      7.369817    0.607372    1.245884
H      5.223872    0.899157   -2.382267
H      5.277997    0.015258    2.389547
H     -1.998926   -0.248930   -2.407485
H     -1.893348    1.397388    1.493991
H     -4.494209   -0.499739   -2.187947
H     -4.323439    1.141050    1.679351
H     -0.118725    1.706842    0.038788
H     -0.097976    0.941914   -1.632224
H     -0.393082   -3.589594   -0.790547
H     -1.624200   -2.646581   -1.616044
H      0.106660   -0.645549    0.962660
