41

C     -6.890078   -0.317584   -0.898728
C      6.170638    1.037476    0.972386
C      6.041980    1.387405   -0.366148
C      5.073244    0.527209    1.635348
C      4.813694    1.204004   -0.964245
C     -2.768007    0.222747   -0.905484
C     -2.774370    0.623189    1.416247
C     -4.134333    0.047571   -0.880527
C     -4.140963    0.447541    1.438551
C     -0.599281    0.699356    0.211641
C      1.084438   -2.068424   -1.364643
C     -2.051525    0.514259    0.236795
C     -4.859408    0.154260    0.287804
C      3.848099    0.348324    1.024786
C      3.711396    0.695250   -0.311432
C      0.207023   -0.538870    0.439336
C     -0.021950   -1.600674   -0.544144
C      2.558897   -0.158455    1.483346
C      2.334066    0.406566   -0.695086
N      2.852826   -3.372191   -0.244106
N      2.072564   -2.565611   -0.767501
N      1.614364   -0.124903    0.420018
O     -1.171022   -2.103501   -0.676075
O      2.268978   -0.578926    2.645869
O      1.825746    0.589584   -1.837511
O     -6.234696   -0.023016    0.307400
H     -6.774054    0.508337   -1.629306
H     -7.962171   -0.489053   -0.652434
H     -6.519877   -1.242468   -1.387752
H      7.134775    1.174384    1.466233
H      6.901735    1.794435   -0.910627
H      5.176881    0.260190    2.662219
H      4.715263    1.475052   -1.999815
H     -2.249220    0.127636   -1.856146
H     -2.233996    0.851118    2.324218
H     -4.699166   -0.181979   -1.779324
H     -4.688954    0.538406    2.380650
H     -0.335329    1.423177    1.010438
H     -0.330591    1.184862   -0.752822
H      1.025550   -1.977733   -2.422626
H      0.006836   -0.898946    1.483197
