27

C     -2.300395   -1.545446   -0.800412
C      4.190401   -0.013249    0.657820
C      4.237309    0.761148   -0.489271
C      2.966757   -0.507452    1.101080
C      3.066349    1.032503   -1.178771
C     -3.961659    0.642691    0.665235
C     -1.815630   -0.138311   -0.604540
C      1.803129   -0.218905    0.387716
C      1.840371    0.549001   -0.752341
C     -2.491984    0.544585    0.548702
C      0.422012   -0.587372    0.605226
C      0.485954    0.676960   -1.270944
Cl    -4.555311   -0.748924    1.602612
N     -0.393347   -0.036857   -0.415382
O     -1.831814    1.052822    1.448486
O     -0.003221   -1.282193    1.542604
O      0.173241    1.315908   -2.303174
H     -2.246704   -2.187883    0.070650
H     -1.754011   -1.967728   -1.649730
H     -3.384561   -1.465805   -1.077450
H      5.099701   -0.225633    1.196481
H      5.194907    1.141708   -0.827474
H      2.933693   -1.119112    2.007216
H      3.113502    1.644485   -2.081483
H     -4.418872    0.690165   -0.350601
H     -4.283078    1.564226    1.205630
H     -2.086740    0.428668   -1.519319
