33

C     -2.933496   -2.437606   -0.042111
C     -1.972191   -1.441321   -0.669478
C      4.452514   -1.052645    0.678316
C      4.587523   -0.895576   -0.683226
C     -2.108811   -0.154943    0.124413
C      3.252254   -0.754876    1.286527
C      3.513516   -0.440409   -1.419591
C     -2.730869    2.768883    0.499947
C      2.178924   -0.299873    0.549808
C      2.318404   -0.145221   -0.805116
C     -1.198686    0.930158   -0.399572
C     -1.421046    2.131310    0.452078
C      0.815782    0.088864    0.897429
C      1.065421    0.341935   -1.366608
N     -2.806390    5.183402   -0.053963
N     -2.730900    4.032293    0.373909
N      0.164936    0.473829   -0.289413
O     -0.486516    2.626493    1.151201
O      0.378837    0.055537    2.080565
O      0.819543    0.600157   -2.580357
H     -3.070920   -3.336199   -0.671312
H     -3.891861   -1.890825    0.122379
H     -2.485167   -2.730463    0.935957
H     -0.924147   -1.794880   -0.614838
H     -2.253724   -1.235111   -1.722831
H      5.303809   -1.410313    1.240889
H      5.519441   -1.121264   -1.192727
H     -1.893470   -0.410036    1.176440
H     -3.158418    0.161584    0.052100
H      3.155165   -0.881343    2.357359
H      3.633375   -0.319812   -2.500515
H     -3.609191    2.184658    0.632977
H     -1.483642    1.173612   -1.427467
