44

C      1.592328    3.756836    0.394412
C      5.675301   -1.530391    0.109870
C      2.145457    2.844210   -0.466574
C      0.694954    3.324224    1.341406
C      4.992820   -2.100553   -0.943398
C      4.958084   -0.826662    1.035195
C     -4.551230   -2.083658    1.276929
C     -5.633743   -1.678366    0.521715
C      1.801366    1.490889   -0.382636
C      0.366666    1.989907    1.411781
C      3.628499   -1.956588   -1.046731
C      3.571084   -0.686641    0.920365
C     -3.296135   -1.600882    1.032930
C     -5.400185   -0.780369   -0.472752
C      0.909327    1.047627    0.556512
C      2.879090   -1.252845   -0.129221
C     -3.057568   -0.674310    0.005476
C     -4.113330   -0.263299   -0.748181
C      0.574865   -0.385335    0.635495
C      1.426706   -1.147284   -0.288730
C     -1.708198   -0.204332   -0.200108
C     -4.028074    0.711965   -1.831585
N     -0.807630   -0.664724    0.599562
O      0.897908   -1.755764   -1.281189
O     -1.316890    0.668150   -1.154670
O     -3.050446    1.312466   -2.224311
O     -5.216693    1.017076   -2.531319
H      1.851152    4.821180    0.342192
H      6.762932   -1.657185    0.173413
H      2.847869    3.193293   -1.205365
H      0.238333    4.032417    2.041197
H      5.564901   -2.655852   -1.671993
H      5.500464   -0.380759    1.861003
H     -4.716923   -2.801657    2.078043
H     -6.637872   -2.062566    0.713984
H      2.280234    0.866392   -1.109135
H     -0.332882    1.635153    2.145900
H      3.110188   -2.410368   -1.879076
H      3.034121   -0.133463    1.658584
H     -2.435155   -1.918378    1.627665
H     -6.246984   -0.456633   -1.071401
H      0.916003   -0.704118    1.676612
H     -0.507764    0.544147   -1.761374
H     -5.162949    1.517051   -3.423270
