53

C     -0.919280   -2.312479    2.776249
C     -1.677413   -3.246635   -2.158815
C     -2.264850   -1.891560    2.291667
C     -2.787092   -2.457265   -1.549490
C      5.497859    0.661398   -0.215898
C      4.301866    1.118977    0.284978
C      5.606532   -0.715801   -0.383741
C     -2.604203    5.316429   -1.088275
C     -1.967655    5.624583    0.099096
C      3.285571    0.239210    0.594432
C      4.610198   -1.592518   -0.081655
C     -2.598042    4.046271   -1.622437
C     -1.311248    4.600070    0.748058
C      2.309283   -2.051297    0.759193
C      0.479691   -0.678537   -1.117292
C      3.420522   -1.117275    0.418419
C     -1.937497    3.015011   -0.969517
C     -1.305350    3.324616    0.211061
C     -0.523665   -0.321636   -0.054567
C     -1.739161    1.595413   -1.248982
C     -0.697007    2.093390    0.691872
C     -1.632713   -1.300844    0.135192
N     -0.961796    1.029954   -0.202692
O     -2.205890    1.003725   -2.276003
O     -0.024784    2.021706    1.775375
O     -2.298470   -0.931580    1.324705
O     -2.480808   -1.294949   -0.931915
S      1.293815   -2.244221   -0.719183
H     -0.276827   -2.791415    2.038208
H     -0.399316   -1.496825    3.359053
H     -1.108237   -3.102041    3.564407
H     -1.134722   -3.852741   -1.393862
H     -2.165228   -4.034482   -2.810340
H     -1.002893   -2.677881   -2.792350
H     -2.803586   -1.455687    3.184118
H     -2.836905   -2.809273    2.046676
H     -3.466404   -2.184807   -2.418237
H     -3.458059   -3.123232   -0.931092
H      6.323345    1.306689   -0.473307
H      4.154724    2.181743    0.438755
H      6.553312   -1.067805   -0.779292
H     -3.116751    6.131781   -1.588453
H     -1.999031    6.641826    0.482600
H      2.375771    0.644566    0.980756
H      4.749640   -2.674796   -0.234431
H     -3.096145    3.819419   -2.545760
H     -0.807802    4.816555    1.675661
H      1.757057   -1.608881    1.601889
H      2.752129   -2.992712    1.083161
H      0.050595   -0.650594   -2.131958
H      1.251090    0.137526   -1.083050
H      0.079574   -0.389848    0.917506
H     -1.243745   -2.301241    0.319507
