49

C     -0.814716   -5.174759   -0.340726
C      0.206907   -4.273693   -0.970526
C     -4.860053    1.440369    2.430471
C     -5.550020    2.329417    1.648670
C     -3.710692    0.888355    1.929055
C     -5.088905    2.640142    0.415359
C      3.626273    0.055106   -1.173817
C      3.927250    0.864255    1.040077
C      2.252504   -0.959941    0.612546
C      4.592220    0.953104   -1.611543
C      4.882303    1.748712    0.592134
C      0.946873   -0.245427    0.517441
C      3.300469    0.017973    0.153766
C      5.225666    1.802439   -0.742196
C     -3.211039    1.196123    0.647587
C     -3.900964    2.076611   -0.115268
C     -0.255443   -1.006132    0.942394
C     -1.984205    0.556560    0.209122
C     -3.480193    2.493443   -1.427624
C     -0.481020   -2.213211    0.137623
N     -1.450361   -0.247182    1.088149
N      6.203926    2.706109   -1.211082
O     -1.321280    0.669623   -0.967393
O     -2.482219    2.184528   -2.083386
O     -4.317954    3.409860   -2.121439
O     -1.648688   -2.472747   -0.308412
O      6.531171    2.744029   -2.541824
O      6.796661    3.490284   -0.444488
O      0.485087   -3.132810   -0.195926
H     -1.847999   -4.945518   -0.650049
H     -0.688443   -5.144959    0.766403
H     -0.598432   -6.214663   -0.665520
H      1.158211   -4.851449   -1.050988
H     -0.126537   -4.007673   -2.009678
H     -5.229580    1.183256    3.435481
H     -6.467097    2.774835    2.038134
H     -3.166297    0.182813    2.553369
H     -5.633947    3.342912   -0.203178
H      3.166127   -0.586367   -1.914141
H      3.664378    0.828090    2.083675
H      2.303660   -1.870796    0.007868
H      2.452394   -1.256355    1.674776
H      4.836098    0.966831   -2.667766
H      5.369100    2.407213    1.285950
H      0.852748    0.119592   -0.538102
H      1.026454    0.657756    1.186381
H     -0.013468   -1.389672    2.020105
H     -1.220669   -0.144512   -1.578430
H     -4.256262    3.407528   -3.130248
