45

C      6.416219    0.727439   -1.041601
C      5.547528    1.799557   -1.240951
C      5.955719   -0.397434   -0.380010
C     -5.502356    0.472317   -3.051472
C     -4.660203    1.521289   -3.376361
C      4.261646    1.698052   -0.771845
C      4.670381   -0.519254    0.100032
C     -5.063633   -0.481314   -2.126923
C     -3.423729    1.616841   -2.802591
C     -0.571196   -1.062897    4.490862
C     -1.984691   -1.079227    3.985369
C      2.384708    0.576222    0.318506
C      0.442902   -1.690438   -0.213168
C      3.836583    0.559287   -0.115162
C     -3.818193   -0.401965   -1.533826
C     -2.993552    0.652223   -1.872884
C     -0.748524   -1.182429    0.562032
C     -3.085816   -1.235641   -0.563131
C     -1.746033    0.508945   -1.134400
C     -0.440943   -0.330096    1.740544
N     -1.782747   -0.650835   -0.321056
O     -3.517521   -2.287646   -0.027490
O     -0.775911    1.326384   -1.224254
S      1.395813   -0.311267   -0.881333
S      0.488194   -1.250163    3.033125
S     -1.947467    0.132487    2.638024
H      7.429712    0.839463   -1.422180
H      5.866571    2.702118   -1.751500
H      6.634359   -1.232014   -0.229793
H     -6.470207    0.406978   -3.515887
H     -5.026297    2.259956   -4.109796
H      3.572673    2.528348   -0.917831
H      4.302507   -1.393789    0.608915
H     -5.722755   -1.291524   -1.875668
H     -2.779333    2.426956   -3.051456
H     -0.400052   -0.096602    5.001017
H     -0.388620   -1.931770    5.196893
H     -2.279413   -2.039319    3.512790
H     -2.661251   -0.757289    4.804947
H      2.070360    1.628396    0.415324
H      2.363367    0.103880    1.336796
H      0.112260   -2.370907   -1.047570
H      1.125546   -2.311097    0.397951
H     -1.199875   -2.142433    1.000038
H      0.113270    0.597341    1.456974
