45

C      5.301920    1.865964    0.459345
C      4.029885    1.796174    1.012774
C      5.881789    0.801243   -0.176423
C     -3.846369    3.566638    1.678559
C     -4.320769    3.503531    0.387943
C      3.352303    0.587544    0.898493
C      5.189769   -0.386946   -0.277404
C     -2.824263    2.725100    2.073925
C     -3.751352    2.591036   -0.474918
C     -3.114683   -3.046556   -1.830718
C     -3.057799   -3.705169   -0.481460
C      3.199134   -1.759768    0.150492
C      0.915157   -0.530123   -1.257812
C      3.929934   -0.482051    0.261996
C     -2.253939    1.810959    1.209340
C     -2.744394    1.769592   -0.067417
C     -0.097226   -0.876384   -0.187691
C     -1.183248    0.824318    1.369761
C     -1.984294    0.735823   -0.768167
C     -0.695774   -2.211077   -0.542713
N     -1.036033    0.158754    0.099119
O     -0.526051    0.607502    2.417844
O     -2.181053    0.428152   -1.994989
S      2.222612   -1.767266   -1.358514
S     -1.517525   -2.283968   -2.126276
S     -2.086739   -2.611808    0.591043
H      5.859834    2.800328    0.532392
H      3.631633    2.667429    1.497438
H      6.882870    0.837112   -0.618804
H     -4.308816    4.293749    2.341996
H     -5.108959    4.126042    0.019512
H      2.370827    0.497198    1.312751
H      5.642502   -1.253153   -0.785796
H     -2.494157    2.823330    3.103113
H     -4.121437    2.537251   -1.494801
H     -3.955633   -2.333935   -1.837690
H     -3.322858   -3.859960   -2.576696
H     -2.516485   -4.664314   -0.555240
H     -4.077250   -3.840709   -0.066195
H      3.904185   -2.635430    0.079905
H      2.561863   -1.930433    1.056833
H      1.299935    0.506568   -1.138734
H      0.398761   -0.543245   -2.262051
H      0.530737   -1.098537    0.737947
H      0.021457   -3.040501   -0.412012
