36

C     -2.648827    0.038620    1.593702
C      5.820974    0.209288   -1.106226
C      5.675212    1.439391   -0.498530
C      4.767704   -0.687111   -1.043569
C      4.509135    1.735724    0.141292
C     -0.854470   -0.253361   -0.072035
C      0.130331   -0.659224    0.971562
C     -3.256958   -0.373442   -0.785352
C     -5.777836   -0.168416   -0.241386
C     -2.237671   -0.642588    0.327405
C     -4.538529   -0.942707   -0.249572
C      3.590354   -0.398708   -0.403412
C      3.478810    0.834473    0.191673
C      2.358769   -1.128809   -0.194701
C      2.149434    0.916634    0.801939
N     -5.593586    2.261238    0.126957
N     -5.756120    1.092985   -0.203898
N      1.484407   -0.305747    0.548605
O     -4.500445   -2.118598    0.194833
O      2.112305   -2.291235   -0.607170
O      1.696494    1.922270    1.442015
H     -3.213659    0.983280    1.352907
H     -3.389305   -0.636472    2.110189
H     -1.842269    0.357651    2.262479
H      6.736922   -0.011678   -1.606298
H      6.495896    2.125008   -0.554869
H      4.874106   -1.656739   -1.516157
H      4.407352    2.709469    0.619577
H     -0.836870    0.861554   -0.130255
H     -0.577894   -0.594799   -1.091834
H     -0.025038   -0.155498    1.925593
H      0.103989   -1.744007    1.132908
H     -2.988978   -0.958241   -1.695605
H     -3.370418    0.680359   -1.015791
H     -6.742052   -0.674498   -0.267993
H     -2.241268   -1.766066    0.502147
