29

C     -4.749375    0.134483   -0.111496
C      2.839477   -1.353462   -0.908471
C     -3.450106    0.036688    0.620413
C     -2.244974    0.041953   -0.289577
C     -1.019504   -0.061529    0.586538
C      0.260119   -0.064132   -0.243256
C      1.406847   -0.170440    0.738152
C      2.749216   -0.183032    0.032486
Cl     4.718346    3.431719   -1.435869
Cl     5.937828    0.761893    0.366684
O      2.906890    1.030037   -0.602166
P      4.233401    1.955344    0.004191
H     -4.681957   -0.131139   -1.179227
H     -5.141159    1.183543   -0.029127
H     -5.545250   -0.508087    0.344715
H      2.318196   -1.132857   -1.852594
H      2.435255   -2.257474   -0.398105
H      3.900088   -1.576089   -1.136010
H     -3.472661   -0.928529    1.202719
H     -3.345745    0.827383    1.408885
H     -2.255122    0.949702   -0.903898
H     -2.317097   -0.843980   -0.953492
H     -1.031306    0.772622    1.316932
H     -1.116724   -1.001098    1.165369
H      0.219132   -0.992383   -0.870117
H      0.327945    0.820478   -0.887182
H      1.365276    0.692395    1.430322
H      1.240890   -1.081373    1.343113
H      3.512074   -0.352635    0.830588
