40

C     -0.699367   -2.880997   -0.885932
C     -4.099656    3.244935   -0.585662
C      4.742890    2.236356   -1.299257
C     -1.658282   -0.116318   -0.573373
C     -2.594084   -0.817699    1.495891
C      2.484280   -1.907942   -0.159212
C     -2.479593    0.979759   -0.540778
C     -3.421244    0.294176    1.520783
C      3.490999   -1.199497   -0.783756
C      0.441646   -2.095360    1.199996
C      2.546783    0.772495    0.073840
C     -0.851705   -2.235055    0.476372
C     -1.696370   -1.048193    0.452165
C      1.487450   -1.296882    0.594092
C     -3.362919    1.200334    0.493091
C      3.532765    0.181544   -0.670694
C      1.526251    0.072067    0.709382
O      0.577183    0.789186    1.446329
O     -4.164010    2.323194    0.468137
O      4.554398    0.855388   -1.310155
H     -1.678527   -3.243874   -1.271360
H     -0.273103   -2.222398   -1.642475
H     -0.051165   -3.773011   -0.819436
H     -4.148168    2.753114   -1.578531
H     -3.163287    3.848692   -0.543459
H     -4.950914    3.947755   -0.460197
H      4.290850    2.641527   -2.239588
H      4.323902    2.744566   -0.422858
H      5.825467    2.477008   -1.338311
H     -0.963570   -0.300131   -1.374294
H     -2.676007   -1.509937    2.334334
H      2.518568   -2.990045   -0.294542
H     -2.406996    1.684052   -1.378366
H     -4.117042    0.475627    2.324819
H      4.268425   -1.693226   -1.373271
H      0.835920   -3.119595    1.425324
H      0.169655   -1.702573    2.229311
H      2.578149    1.849177    0.163691
H     -1.420606   -3.007953    1.094130
H      0.681035    1.789733    1.486180
