37

C     -3.176885   -0.307334    1.188385
C      1.105690   -3.530496    1.017389
C      0.882978    3.682546   -0.511576
C      2.312725   -3.732641    0.383557
C      2.081783    3.690694   -1.182806
C      0.522138   -2.278205    1.045205
C      0.369201    2.515520    0.034750
C      2.930774   -2.667345   -0.222876
C      2.746563    2.505205   -1.290727
C     -2.194911    0.517742   -0.859814
C     -0.794036    0.141701    1.164413
C     -1.917480   -0.416652    0.315045
C      1.118256   -1.171956    0.440400
C      1.032061    1.299470   -0.064738
C      2.320099   -1.433647   -0.175444
C      2.230057    1.356971   -0.747112
N     -3.393594    0.004616   -1.505366
N      0.492840    0.110639    0.502690
S      3.189591   -0.111350   -0.973260
H     -2.865172   -0.505311    2.250260
H     -3.524339    0.728849    1.154268
H     -3.967089   -0.992634    0.848606
H      0.636104   -4.379630    1.487884
H      0.339106    4.608206   -0.413646
H      2.775609   -4.723129    0.360682
H      2.502722    4.597769   -1.619297
H     -0.408284   -2.210072    1.570825
H     -0.575084    2.582941    0.540283
H      3.889373   -2.812807   -0.729593
H      3.709780    2.510171   -1.829820
H     -1.332170    0.590709   -1.519247
H     -2.477018    1.496572   -0.428669
H     -1.151683    1.147934    1.444402
H     -0.766771   -0.427367    2.132561
H     -1.825659   -1.434019   -0.015150
H     -3.205370    0.009514   -2.550212
H     -3.611908   -0.963177   -1.242252
