36

C      1.472952   -1.893244    0.078827
C      5.810806    0.601215    0.211730
C      5.156971    0.083215    1.298019
C      5.177336    0.804945   -0.997710
C      3.823028   -0.244519    1.177075
C      3.845626    0.462243   -1.068716
C     -3.275675   -0.048475    0.819007
C     -3.357594    0.634872   -1.451238
C     -4.648496   -0.205982    0.813126
C     -4.737405    0.474312   -1.449783
C      0.934350    0.439707    0.813345
C      1.685813   -0.418530   -0.142089
C      3.144063   -0.061298   -0.006576
C     -2.651592    0.371249   -0.318999
C     -5.392369    0.052441   -0.316484
C     -1.202606    0.540327   -0.322122
N     -6.787665   -0.114762   -0.299143
O     -0.638960    0.922679   -1.360629
O     -7.517736    0.149372   -1.442111
O     -7.369499   -0.497058    0.732207
O     -0.447301    0.288653    0.789650
H      2.350978   -2.417917   -0.355435
H      0.568925   -2.233801   -0.444479
H      1.424603   -2.170231    1.141367
H      6.861354    0.866234    0.284849
H      5.703910   -0.052592    2.213724
H      5.685650    1.216267   -1.869836
H      3.289936   -0.657209    2.031814
H      3.300929    0.603743   -2.000672
H     -2.721546   -0.256789    1.712277
H     -2.878253    0.967756   -2.359750
H     -5.140012   -0.538006    1.714164
H     -5.302236    0.688106   -2.365085
H      1.285789    0.320793    1.868298
H      1.165132    1.502416    0.559064
H      1.380794   -0.180132   -1.174359
