44

C     -3.153437    2.474033   -0.309063
C      6.871499    0.771938   -0.247417
C     -1.641541    2.306089   -0.011531
C     -5.748896   -1.068108    0.044550
C     -5.132898   -0.365232    1.034969
C     -4.947585   -1.532299   -1.001107
C     -1.161491    1.041113   -0.602250
C     -3.763060   -0.106222    1.035923
C     -3.601548   -1.281323   -1.006684
C      5.494395   -1.195496    0.435637
C      4.430147    0.836499   -0.169732
C      4.244043   -1.769706    0.675243
C      3.208599    0.246943    0.071583
C     -0.834821   -0.608853    1.275522
C      5.583204    0.105088    0.015134
C     -2.965903   -0.562463    0.005702
C     -1.515156   -0.285499   -0.052243
C      3.103576   -1.064563    0.494421
O      1.183782   -2.546750   -0.418914
O      1.550239   -2.617227    1.947747
O      0.505171   -0.467279    1.023154
S      1.496482   -1.682857    0.809111
H     -3.439459    1.642809   -1.011121
H     -3.770159    2.587647    0.539818
H     -3.282842    3.407551   -0.953967
H      6.714073    1.594361   -0.993654
H      7.192112    1.251783    0.714848
H      7.611052    0.052263   -0.586589
H     -1.147376    3.161618   -0.495402
H     -1.480883    2.419434    1.086725
H     -6.815275   -1.284726    0.012934
H     -5.745649    0.002198    1.858304
H     -5.368903   -2.101776   -1.826063
H     -1.463410    1.048084   -1.703231
H     -0.016217    1.073896   -0.598444
H     -3.326383    0.449686    1.850686
H     -2.966910   -1.631361   -1.814943
H      6.378668   -1.767891    0.579551
H      4.489155    1.851036   -0.501329
H      4.230898   -2.799690    0.997173
H      2.335029    0.901303   -0.110584
H     -1.150846    0.140769    1.989701
H     -1.053700   -1.605681    1.555122
H     -1.127773   -1.021140   -0.813640
