39

C      2.820855    3.003797    0.276803
C      2.568835   -0.815076    3.501910
C      2.245526    0.506398    3.710812
C      2.654926   -1.263743    2.198667
C     -3.834711   -1.348417    0.194510
C      2.006604    1.389970    2.672366
C      2.412980   -0.367512    1.160054
C     -2.790094   -0.451559    0.171292
C     -3.971293   -2.263875   -0.857508
C      0.454446    2.444814    0.233985
C      1.844103    1.848560    0.217173
C      2.092467    0.941623    1.362111
C     -1.850570   -0.393369   -0.838885
C     -3.040935   -2.218784   -1.873916
C     -1.996497   -1.299069   -1.866740
C     -1.069055   -1.323553   -2.969160
C     -0.761877    0.583356   -0.820347
N     -3.186288   -3.154902   -2.941372
O     -0.047955   -2.079850   -2.841489
O     -1.198641   -0.600125   -4.138982
O      0.045609    0.581596   -1.785121
O     -3.725522   -4.390513   -2.690528
O     -2.833575   -2.887095   -4.116105
O     -0.574275    1.492729    0.182206
H      2.390126    3.834347    0.898596
H      3.065322    3.428521   -0.699441
H      3.761170    2.711321    0.808344
H      2.748516   -1.471850    4.366301
H      2.175353    0.873582    4.745226
H      2.909334   -2.301397    2.042238
H     -4.548795   -1.353734    1.013708
H      1.754243    2.424620    2.844804
H      2.488164   -0.751740    0.131152
H     -2.642501    0.284185    0.973775
H     -4.786671   -2.980615   -0.862563
H      0.398423    3.245775   -0.506312
H      0.361615    2.952115    1.240770
H      2.030599    1.298529   -0.740128
H     -0.369963   -0.129063   -4.509654
