30

C      4.956897    0.410392    1.181597
C     -0.239166   -1.934273   -0.151690
C      4.070048   -0.116402    0.076950
C     -4.598642    0.709888    0.036832
C     -3.652393    1.563178    0.558564
C     -4.169198   -0.250895   -0.852041
C     -2.319399    1.471141    0.212939
C     -2.829388   -0.344891   -1.200679
C     -0.452285    0.385865   -1.069766
C      0.308532   -0.546200   -0.158091
C     -1.877062    0.506701   -0.681587
C      2.633795   -0.076328    0.490910
O      2.251173    0.337233    1.595006
O      1.682433   -0.525547   -0.408500
H      5.771127   -0.327890    1.403824
H      5.438896    1.348844    0.815952
H      4.327405    0.582572    2.068368
H     -0.546840   -2.288609   -1.166226
H     -1.027047   -2.099198    0.606768
H      0.604475   -2.623976    0.144597
H      4.245081    0.441787   -0.868014
H      4.335734   -1.198824   -0.104016
H     -5.655977    0.795759    0.321738
H     -3.990041    2.318382    1.257247
H     -4.924870   -0.918649   -1.257237
H     -1.579805    2.155637    0.635384
H     -2.524411   -1.099794   -1.892550
H     -0.395857    0.058508   -2.122221
H     -0.009732    1.401562   -1.027514
H      0.166515   -0.135974    0.884889
