54

C      7.409666   -0.756781    0.207937
C     -3.343177   -0.895559    0.466302
C      6.933476    0.682323    0.153157
C      5.390473    0.616866    0.156588
C      5.031501   -0.084536    1.432729
C      3.555491   -0.190603    1.579410
C      2.954758   -0.955969    0.446796
C      1.475012   -1.068655    0.632074
C      0.729842    0.224419    0.705237
C     -8.061465    0.126676   -0.333616
C     -7.468400    0.469865   -1.521736
C     -7.352867    0.166945    0.856398
C      0.860888    1.112635   -0.474171
C     -6.162223    0.858864   -1.549003
C     -6.026060    0.563967    0.812849
C      0.403183    0.479544   -1.738840
C     -4.019182    1.325821   -0.453308
C     -3.169397    0.112418   -0.686003
C     -5.452857    0.900943   -0.373668
C     -1.011248    0.129123   -1.697379
O     -1.500846   -0.531144   -2.668073
O     -1.818072    0.488559   -0.654471
H      7.575705   -1.036358    1.284570
H      6.642721   -1.407789   -0.275820
H      8.380983   -0.844525   -0.328055
H     -3.029209   -0.445554    1.427534
H     -2.674084   -1.771961    0.283374
H     -4.376130   -1.299402    0.479379
H      7.244302    1.240554    1.040645
H      7.244205    1.147069   -0.806435
H      5.072406    0.068529   -0.762689
H      4.976675    1.637890    0.161436
H      5.522644    0.423032    2.295155
H      5.505644   -1.106962    1.400508
H      3.061927    0.810820    1.665687
H      3.350567   -0.679600    2.570009
H      3.341822   -2.015420    0.408516
H      3.231987   -0.534490   -0.539217
H      1.036984   -1.772084   -0.113873
H      1.314830   -1.569671    1.632818
H      1.053910    0.761654    1.640742
H     -0.326394   -0.020979    0.889856
H     -9.113937   -0.181317   -0.352834
H     -8.037347    0.434358   -2.462455
H     -7.820791   -0.105079    1.794559
H      0.245743    2.036294   -0.236041
H      1.887235    1.531224   -0.600103
H     -5.687543    1.131345   -2.481084
H     -5.452834    0.601226    1.743486
H      0.541879    1.181535   -2.606334
H      0.994700   -0.433402   -2.001335
H     -3.714236    1.881288    0.458075
H     -3.927710    2.028363   -1.295238
H     -3.425150   -0.431825   -1.614047
