75

C      8.435677   -3.950716    0.529446
C     -4.993321   -2.671089   -1.193200
C      8.262754   -2.859870   -0.534048
C      6.819528   -2.426346   -0.445933
C      6.446395   -1.348065   -1.418198
C      7.213660   -0.077928   -1.261454
C      7.035001    0.532919    0.090538
C      5.581111    0.865661    0.396920
C      5.006427    1.817886   -0.596555
C      3.580298    2.134790   -0.256982
C      2.761745    0.869032   -0.273426
C      1.312275    1.289655    0.048700
C      0.522108    0.015886    0.035817
C     -0.959023    0.353535    0.304739
C     -1.074177    1.014526    1.625788
C     -2.405075    1.320489    2.179520
C     -9.228015    1.937042    0.581737
C     -8.480815    2.042030   -0.566901
C     -9.280811    0.696100    1.173527
C     -3.359850    2.179560    1.490904
C     -7.802847    0.974749   -1.127935
C     -8.608742   -0.385977    0.627141
C     -3.874982    1.696781    0.194023
C     -7.143330   -1.411306   -1.116716
C     -5.727127   -1.503121   -0.563687
C     -7.867237   -0.276761   -0.514817
C     -4.598418    0.403724    0.373569
O     -4.820572   -0.090577    1.496751
O     -5.049790   -0.292956   -0.736666
H      7.750686   -3.741687    1.376149
H      8.202925   -4.953547    0.074043
H      9.463773   -3.926462    0.941109
H     -5.389688   -3.602600   -0.707207
H     -5.172608   -2.778921   -2.268670
H     -3.937073   -2.576454   -0.917840
H      8.992434   -2.079257   -0.342128
H      8.501602   -3.326099   -1.508655
H      6.204753   -3.323817   -0.714847
H      6.523982   -2.158823    0.582720
H      6.499067   -1.750721   -2.464993
H      5.370940   -1.129678   -1.263085
H      6.836830    0.617043   -2.067822
H      8.296101   -0.181189   -1.451717
H      7.654082    1.434063    0.203502
H      7.375551   -0.229850    0.840244
H      5.033236   -0.076604    0.423030
H      5.536766    1.325899    1.413483
H      5.623821    2.742941   -0.684795
H      4.966269    1.286538   -1.594277
H      3.219480    2.859277   -1.034405
H      3.502414    2.649122    0.729883
H      2.712212    0.415060   -1.282908
H      3.101258    0.139670    0.465170
H      1.336933    1.787554    1.059492
H      0.913945    2.005146   -0.662183
H      0.883362   -0.680527    0.842524
H      0.609038   -0.513538   -0.913311
H     -1.577741   -0.530819    0.167929
H     -1.131478    1.133787   -0.519810
H     -0.500785    0.450346    2.426405
H     -0.522003    2.003230    1.561072
H     -2.910732    0.352079    2.529639
H     -2.229643    1.804159    3.223502
H     -9.745990    2.783287    0.999905
H     -8.415252    3.006578   -1.063232
H     -9.846930    0.552727    2.071459
H     -2.959699    3.224636    1.301391
H     -4.241738    2.416256    2.192404
H     -7.213492    1.080869   -2.043059
H     -8.661962   -1.362645    1.111076
H     -3.212706    1.590338   -0.642346
H     -4.665397    2.467089   -0.196486
H     -7.018709   -1.198823   -2.218608
H     -7.648576   -2.378775   -1.033263
H     -5.812105   -1.732069    0.516913
