69

C     -9.243427    0.020719   -2.107089
C      5.807784   -1.611196   -0.370443
C     -7.768453    0.416291   -2.011784
C     -7.001496   -0.839856   -1.642685
C     -5.535693   -0.557286   -1.528025
C     -5.247421    0.484930   -0.477520
C     -5.730466    0.018059    0.849487
C     -5.081786   -1.246004    1.272715
C     -3.563949   -1.180166    1.389019
C     -3.222426   -0.152110    2.396108
C     -1.801230    0.062736    2.667593
C     -0.962582    0.685842    1.630976
C     -0.842961    0.086134    0.299714
C      0.206576    0.758077   -0.545447
C     10.389068    0.102197   -1.262264
C      9.824768    1.023685   -0.405750
C      9.546833   -0.626157   -2.083854
C      1.588697    0.524468   -0.172563
C      8.474450    1.250927   -0.330140
C      8.181177   -0.424645   -2.035944
C      2.138043    0.844850    1.152263
C      6.203577    0.763849   -1.070843
C      5.604371   -0.162108   -0.026275
C      7.646018    0.510709   -1.162073
C      3.640040    0.561701    1.131701
O      4.318902    0.757580    2.151282
O      4.212869    0.094604   -0.018329
H     -9.825937    0.959890   -1.988996
H     -9.397107   -0.457823   -3.090979
H     -9.456508   -0.628300   -1.250110
H      5.248934   -2.226251    0.358914
H      5.457684   -1.871631   -1.376861
H      6.873741   -1.924441   -0.294839
H     -7.417605    0.836162   -2.963750
H     -7.719741    1.165429   -1.201498
H     -7.393599   -1.307376   -0.728003
H     -7.107009   -1.531195   -2.528827
H     -4.985855   -1.502338   -1.343800
H     -5.167985   -0.158842   -2.513309
H     -4.163886    0.749447   -0.455859
H     -5.750960    1.451386   -0.767802
H     -5.634037    0.863003    1.564049
H     -6.842900   -0.186530    0.841694
H     -5.330891   -2.050199    0.559680
H     -5.438576   -1.608862    2.263154
H     -3.318417   -2.217335    1.852734
H     -3.071475   -1.210153    0.447424
H     -3.694112    0.821372    2.010254
H     -3.717485   -0.379192    3.394519
H     -1.357788   -0.950838    2.984481
H     -1.752820    0.666685    3.645063
H     -0.053140    1.064974    2.125008
H     -1.463813    1.751471    1.389489
H     -0.693810   -1.012728    0.319873
H     -1.840043    0.252752   -0.292620
H     -0.003503    0.518175   -1.634174
H     -0.032143    1.875187   -0.462732
H     11.466459   -0.044444   -1.288143
H     10.526655    1.582036    0.230768
H      9.931565   -1.363077   -2.777229
H      2.232276    1.076878   -0.969609
H      1.920260   -0.550912   -0.403912
H      8.057889    1.972730    0.342706
H      7.512073   -0.993276   -2.678780
H      1.803890    0.093148    1.931551
H      2.063097    1.871681    1.499954
H      5.711481    0.572971   -2.056509
H      5.982253    1.798341   -0.735274
H      6.061609    0.064199    0.957501
