36

C      6.268317    0.725803    0.450225
C     -1.058412   -0.797296    1.550839
C      5.150167    0.421911   -0.491271
C      3.785059    0.689794    0.120285
C     -5.922934   -0.093982    0.257470
C     -5.225884    0.817536   -0.507402
C     -5.274331   -1.230708    0.697077
C     -3.900172    0.590476   -0.824927
C     -3.949433   -1.440226    0.369547
C      2.759833    0.336167   -0.936564
C     -1.814086   -0.718799   -0.775374
C     -0.843004   -0.117326    0.215484
C     -3.231477   -0.547677   -0.391575
C      1.380533    0.551860   -0.470421
O      1.006910    1.738843   -0.269190
O      0.460988   -0.459950   -0.236063
H      6.007077    0.623986    1.517853
H      7.100934    0.009525    0.209706
H      6.686707    1.730007    0.212983
H     -1.976640   -0.447720    2.064982
H     -1.190309   -1.904715    1.401237
H     -0.150799   -0.701854    2.200880
H      5.214555    1.056598   -1.412798
H      5.139343   -0.633833   -0.847335
H      3.719441    1.793021    0.286090
H      3.632713    0.129749    1.057824
H     -6.964792    0.086069    0.507362
H     -5.766418    1.698281   -0.834832
H     -5.825034   -1.955108    1.305443
H     -3.385316    1.325625   -1.426252
H     -3.456715   -2.327662    0.718906
H      2.885695   -0.737344   -1.169549
H      2.989019    0.895698   -1.852846
H     -1.640428   -1.804692   -0.889258
H     -1.669985   -0.263278   -1.787894
H     -0.941123    0.961220    0.314956
