40

C     -1.996964   -1.838603    0.624070
C     -6.554695    0.529758    0.243258
C     -5.826181    0.138312    1.370913
C     -5.863986    0.942763   -0.856516
C      6.622780    0.556907    0.636369
C      5.799569    0.632086    1.745417
C     -4.453676    0.160983    1.392823
C     -4.487109    0.962308   -0.825677
C      6.069149    0.283414   -0.602364
C      4.446207    0.437125    1.617746
C      4.200715   -0.182091   -1.981042
C      2.845043   -0.382898   -2.142642
C     -2.310042    0.621817    0.250358
C      2.557952   -0.040097    0.182977
C     -1.664645   -0.651068   -0.231600
C     -3.767886    0.576615    0.285479
C      4.717086    0.087974   -0.733982
C      3.905857    0.165450    0.379701
C      2.021130   -0.310958   -1.052858
C      0.589580   -0.523862   -1.228636
O      0.101803   -0.768618   -2.343072
O     -0.253588   -0.454062   -0.136881
H     -1.249514   -2.640773    0.357013
H     -2.983627   -2.278731    0.398144
H     -1.832555   -1.647966    1.704589
H     -7.621677    0.500179    0.259264
H     -6.411737   -0.185443    2.230251
H     -6.379950    1.249583   -1.736951
H      7.683940    0.704421    0.703736
H      6.260669    0.846995    2.698242
H     -3.961706   -0.161458    2.315034
H     -3.986877    1.305491   -1.744079
H      6.690794    0.218001   -1.492803
H      3.807966    0.496852    2.486286
H      4.821504   -0.242885   -2.842406
H      2.439344   -0.593900   -3.115130
H     -1.940481    1.435702   -0.428714
H     -1.938503    0.897266    1.259094
H      1.886155    0.013860    1.042737
H     -1.981845   -0.860451   -1.264446
