48

C      6.330268    0.934937   -1.550750
C     -3.081340   -2.026281    0.141309
C      5.722472    0.025919   -0.520685
C      4.252545   -0.146105   -0.816891
C      3.572883   -1.048913    0.173631
C      3.640579   -0.556202    1.578731
C      2.990086    0.769815    1.726349
C     -6.983438    0.727880   -1.508318
C     -6.368542    1.590657   -0.622844
C     -6.283726   -0.255531   -2.167184
C      1.557427    0.751648    1.341548
C     -5.013205    1.411535   -0.435571
C     -4.938585   -0.398550   -1.951888
C      0.751399   -0.228924    2.152668
C     -2.846593    0.302844   -0.818297
C     -2.581796   -0.640949    0.335900
C     -4.300419    0.436207   -1.083927
C     -0.670145   -0.200996    1.793008
O     -1.503350    0.308491    2.600651
O     -1.189666   -0.700981    0.605476
H      5.602718    1.177206   -2.336736
H      6.693144    1.888382   -1.101658
H      7.213699    0.479084   -2.043699
H     -4.184095   -2.133388    0.214432
H     -2.665131   -2.665279    0.948952
H     -2.712591   -2.490542   -0.815407
H      5.899506    0.424486    0.489269
H      6.192064   -0.992411   -0.557409
H      4.165381   -0.624796   -1.814752
H      3.755321    0.834512   -0.911228
H      2.509506   -1.144604   -0.118889
H      4.031326   -2.062860    0.066783
H      4.690015   -0.534334    1.972936
H      3.128311   -1.306356    2.231283
H      3.111694    1.175180    2.753981
H      3.514666    1.480308    1.041816
H     -8.061692    0.869593   -1.656534
H     -6.922386    2.352166   -0.115566
H     -6.847105   -0.887238   -2.845257
H      1.143518    1.796610    1.477359
H      1.449572    0.539899    0.249023
H     -4.557297    2.114085    0.271613
H     -4.411919   -1.195238   -2.494860
H      1.153479   -1.251771    1.936955
H      0.870587   -0.012441    3.229661
H     -2.393363    1.282098   -0.508527
H     -2.349449    0.018159   -1.760776
H     -3.076336   -0.187012    1.224322
