40

C      2.141266    1.858762   -0.192413
C      6.487257   -0.359948    0.314161
C      5.953801    0.312972   -0.766254
C      5.645249   -1.098494    1.119970
C     -6.623728   -0.300677   -0.989486
C     -5.795780   -0.097719   -2.080500
C      4.597969    0.242793   -1.029287
C      4.302816   -1.174666    0.868860
C     -6.127853   -0.372393    0.296270
C     -4.446196    0.030651   -1.827521
C     -4.247445   -0.308703    1.804323
C     -2.893305   -0.176681    2.025896
C      2.312768   -0.602730   -0.458459
C     -2.563296    0.093223   -0.305359
C      1.638477    0.512321    0.288119
C      3.772712   -0.499175   -0.214249
C     -4.769583   -0.239952    0.518311
C     -3.914002   -0.036758   -0.543501
C     -2.019245    0.026954    0.980785
C     -0.578653    0.169879    1.191870
O     -0.167177    0.098642    2.376359
O      0.244311    0.372906    0.094792
H      3.174393    1.984730    0.135834
H      1.477331    2.642504    0.191425
H      2.089289    1.884106   -1.306733
H      7.542813   -0.305849    0.519697
H      6.601657    0.896094   -1.407003
H      6.104334   -1.611030    1.956925
H     -7.687880   -0.409426   -1.113387
H     -6.211735   -0.045179   -3.082585
H      4.158217    0.767254   -1.877731
H      3.650742   -1.764880    1.518368
H     -6.751478   -0.529545    1.161041
H     -3.772387    0.189667   -2.653628
H     -4.909447   -0.467309    2.639819
H     -2.459695   -0.225914    3.014897
H      1.914005   -1.569227   -0.083593
H      2.145656   -0.573460   -1.538401
H     -1.906970    0.251344   -1.142366
H      1.890792    0.434918    1.352818
