51

C      6.087037    1.237328   -2.193261
C     -0.789929   -2.288929   -1.461856
C      5.994469    1.542654   -0.733617
C     -0.760361   -2.259685    0.036295
C      4.680485    0.911741   -0.179604
C      4.778441   -0.538223   -0.419976
C      3.771614   -1.455802    0.085746
C      2.323471   -1.341496   -0.253392
C      1.643219   -0.173636    0.332852
C     -6.695974    1.475504   -0.788282
C     -5.642024    1.019779   -1.545439
C      0.216058    0.066435    0.047374
C     -6.563344    1.471404    0.571435
C     -4.507059    0.581226   -0.934791
C     -0.832923   -0.856865    0.514823
C     -5.403102    1.024271    1.228581
C     -4.371415    0.577755    0.475196
C     -5.356806    1.056702    2.667070
C     -3.092639    0.076587    0.949342
O     -4.410413    0.695071    3.360044
O     -6.478924    1.540251    3.381292
O     -2.758273   -0.014658    2.133432
O     -2.111031   -0.355747    0.045349
H      6.730231    1.981082   -2.717991
H      6.505263    0.241823   -2.421360
H      5.057241    1.253565   -2.617415
H     -1.770731   -2.030962   -1.872385
H     -0.050365   -1.568797   -1.909297
H     -0.434302   -3.293920   -1.779644
H      6.814181    1.046854   -0.211206
H      5.941496    2.635091   -0.589440
H     -0.101246   -2.948719    0.544175
H     -1.839817   -2.671886    0.303966
H      3.881257    1.325955   -0.885469
H      4.491063    1.282910    0.802607
H      5.822652   -0.914452   -0.097374
H      4.774297   -0.656873   -1.568195
H      4.100567   -2.550916   -0.107951
H      3.873106   -1.453313    1.242258
H      1.809363   -2.325771   -0.133046
H      2.314818   -1.241354   -1.408265
H      1.686943   -0.298051    1.499619
H      2.236868    0.744823    0.210587
H     -7.611388    1.829474   -1.273061
H     -5.764415    1.029499   -2.637150
H     -0.020336    1.073585    0.558389
H      0.054782    0.360312   -1.043630
H     -7.362338    1.819292    1.210815
H     -3.698475    0.229271   -1.579676
H     -0.847181   -0.808881    1.649153
H     -6.314109    1.918689    4.295642
