54

C      6.890439    1.495945   -0.952569
C     -0.484569    2.374869    0.376198
C      5.934985    2.126475    0.006087
C      6.111825    1.567870    1.415902
C      5.874321    0.093202    1.390480
C      4.487307   -0.223205    0.907287
C      3.463251    0.406616    1.808586
C      2.071921    0.058355    1.299469
C      1.083688    0.701350    2.216163
C     -8.188680   -2.841601   -2.471272
C     -7.187148   -3.372960   -3.260006
C     -0.311105    0.410949    1.796981
C     -7.831250   -1.932066   -1.500329
C     -5.868566   -2.984591   -3.058801
C     -6.164112   -0.637835   -0.330798
C     -4.830521   -0.266959   -0.152255
C     -4.176183   -1.698547   -1.903159
C     -0.671325    0.890988    0.407464
C     -6.514064   -1.548848   -1.304809
C     -5.508782   -2.074457   -2.087651
C     -3.822958   -0.787581   -0.929818
C     -2.421315   -0.398235   -0.742380
O     -1.532158   -0.880776   -1.456042
O     -2.032399    0.510916    0.223835
H      6.386908    0.808278   -1.691691
H      7.677322    0.935178   -0.416381
H      7.348329    2.330208   -1.556444
H      0.471406    2.637895   -0.121615
H     -1.330243    2.919194   -0.090538
H     -0.408642    2.804801    1.418125
H      6.083750    3.247293    0.070060
H      4.906235    2.013867   -0.370671
H      7.156543    1.800647    1.758293
H      5.439769    2.036818    2.136988
H      6.599693   -0.420767    0.712859
H      6.064992   -0.347841    2.391741
H      4.314377    0.111130   -0.121817
H      4.319396   -1.346609    0.914062
H      3.529404    0.081817    2.856203
H      3.537515    1.515062    1.794976
H      1.928527    0.405869    0.255554
H      1.950359   -1.037390    1.351838
H      1.216247    0.218060    3.224175
H      1.287108    1.777460    2.391917
H     -9.225971   -3.124844   -2.604150
H     -7.473883   -4.083860   -4.017478
H     -0.466104   -0.692096    1.855673
H     -1.024820    0.889913    2.510925
H     -8.613837   -1.514787   -0.880872
H     -5.113708   -3.406369   -3.676814
H     -6.963913   -0.234604    0.275268
H     -4.558610    0.447388    0.611639
H     -3.397697   -2.125302   -2.532188
H     -0.013053    0.363716   -0.319342
