54

C      8.018025   -0.956206   -0.836412
C     -0.272272   -2.115516    1.172137
C      7.769998    0.445008   -1.372583
C      6.271277    0.692948   -1.231236
C      5.868743    0.592977    0.207465
C      4.376053    0.849429    0.375109
C      3.539644   -0.141479   -0.388600
C      2.072035    0.134494   -0.220087
C      1.676638    0.040252    1.222478
C     -9.264525    0.351954   -0.333520
C     -8.800791    0.426334   -1.633733
C      0.204297    0.300731    1.441797
C     -8.385087    0.154959    0.712005
C     -7.438636    0.295106   -1.820574
C     -6.162966   -0.172535    1.585118
C     -4.803506   -0.301849    1.381312
C     -5.191178   -0.032982   -0.970156
C     -0.601214   -0.696937    0.700799
C     -7.020916    0.024756    0.512219
C     -6.556391    0.098646   -0.783805
C     -4.329491   -0.229276    0.088136
C     -2.876180   -0.365713   -0.148979
O     -2.391088   -0.308457   -1.294929
O     -1.995927   -0.563429    0.901685
H      8.909762   -1.358911   -1.383474
H      7.119426   -1.562194   -0.987024
H      8.269351   -0.887824    0.241553
H      0.745497   -2.417267    0.871399
H     -0.494769   -2.233205    2.234416
H     -0.977087   -2.781188    0.613176
H      8.023148    0.514607   -2.442797
H      8.333242    1.201793   -0.794080
H      5.780009   -0.139169   -1.804345
H      6.006940    1.670875   -1.669441
H      6.099370   -0.378474    0.653205
H      6.412573    1.358342    0.792323
H      4.148158    0.808254    1.474168
H      4.208268    1.891757    0.040204
H      3.750596   -1.183366   -0.027921
H      3.807744   -0.117180   -1.467665
H      1.907064    1.176414   -0.606317
H      1.481215   -0.550356   -0.865688
H      2.211733    0.858607    1.794517
H      2.012722   -0.897520    1.695508
H    -10.330619    0.445662   -0.093926
H     -9.493261    0.581102   -2.453272
H      0.002413    1.309798    1.019392
H      0.046126    0.273727    2.542483
H     -8.719831    0.091374    1.753288
H     -7.063885    0.350488   -2.822353
H     -6.536934   -0.228712    2.594172
H     -4.100378   -0.457760    2.200674
H     -4.830847    0.025948   -1.992211
H     -0.434288   -0.611536   -0.375609
