54

C      7.726926    0.882228    0.686514
C     -0.418812   -1.328165    2.165150
C      7.459286    1.354382   -0.719124
C      5.944038    1.260523   -0.942524
C      5.566790   -0.171632   -0.754863
C      4.089768   -0.402688   -0.956589
C      3.219675    0.366020   -0.011350
C      1.741672    0.130715   -0.224546
C      1.444830   -1.311616   -0.031130
C     -7.557296    2.329283   -0.536235
C     -6.266004    2.748779   -0.378199
C     -6.274599   -2.165621    0.061413
C     -0.012743   -1.662366   -0.213469
C     -7.922740    1.004693   -0.472759
C     -7.252073   -1.229307   -0.170698
C     -5.273486    1.808906   -0.143463
C     -4.965400   -1.793245    0.226395
C     -0.883482   -0.919506    0.766035
C     -6.908925    0.105627   -0.238455
C     -5.575589    0.469950   -0.069096
C     -4.578169   -0.438082    0.163505
C     -3.175229   -0.112511    0.346995
O     -2.677471    0.999909    0.323254
O     -2.243259   -1.154460    0.581012
H      6.876082    1.200226    1.325259
H      7.853130   -0.227634    0.699929
H      8.682055    1.326160    1.070622
H     -0.354984   -2.426909    2.181993
H      0.563780   -0.859342    2.326826
H     -1.109476   -0.913377    2.935662
H      7.939867    0.648948   -1.432348
H      7.802675    2.406546   -0.873279
H      5.685176    1.624279   -1.935542
H      5.415514    1.872510   -0.192464
H      5.833960   -0.560853    0.255405
H      6.080044   -0.834355   -1.510205
H      3.834071   -0.098520   -1.994279
H      3.956846   -1.516684   -0.820773
H      3.434307   -0.054980    1.016570
H      3.471731    1.429350    0.057678
H      1.234506    0.722129    0.593249
H      1.428394    0.525293   -1.208169
H      1.816098   -1.678612    0.923413
H      1.981108   -1.888064   -0.842415
H     -8.303648    3.103922   -0.718844
H     -5.959638    3.783586   -0.424625
H     -6.517172   -3.237918    0.120848
H     -0.368136   -1.428670   -1.225869
H     -0.100278   -2.748806    0.037472
H     -8.957858    0.752710   -0.607006
H     -8.266703   -1.548063   -0.295851
H     -4.269015    2.175800   -0.024197
H     -4.168853   -2.495684    0.410113
H     -0.721293    0.175196    0.693056
