57

C      7.215827    1.641346   -2.081587
C     -2.064857   -2.952422   -0.268204
C      5.992327    1.129424   -2.807107
C      4.990469    0.615795   -1.809239
C      4.547282    1.682866   -0.847656
C      3.532381    1.146844    0.152375
C      4.115690    0.019567    0.962450
C      3.105494   -0.491455    1.953357
C      1.845288   -1.023455    1.320864
C      0.898186   -1.520559    2.413748
C     -0.376015   -2.068561    1.866510
C     -7.731381    1.933005   -0.980684
C     -7.843370    1.176795    0.161144
C     -1.182336   -1.069524    1.065489
C     -6.554544    1.840096   -1.660550
C     -6.822395    0.368599    0.595678
C     -2.437880   -1.777075    0.587883
C     -5.482131    1.015344   -1.238103
C     -5.600244    0.265762   -0.101472
C     -4.279624    0.987307   -2.024023
C     -4.606601   -0.624921    0.465633
O     -3.266616    0.347436   -1.814032
O     -4.245745    1.791141   -3.185055
O     -4.881159   -1.261557    1.552306
O     -3.354574   -0.910416    0.001449
H      7.187144    1.272828   -1.043391
H      7.298816    2.758891   -2.143213
H      8.156950    1.264917   -2.556632
H     -1.798735   -3.838155    0.328548
H     -1.139612   -2.672257   -0.831463
H     -2.827599   -3.173515   -1.047330
H      5.519758    2.002867   -3.323966
H      6.236885    0.322006   -3.512539
H      5.471053   -0.239324   -1.296880
H      4.071117    0.271755   -2.349191
H      5.404955    2.044119   -0.263383
H      4.045922    2.500874   -1.399149
H      3.209236    1.931974    0.857712
H      2.649203    0.717686   -0.407022
H      4.425055   -0.846675    0.332800
H      4.970556    0.416071    1.550553
H      2.787093    0.382267    2.586355
H      3.607949   -1.261156    2.564421
H      2.117446   -1.864617    0.665288
H      1.318086   -0.246839    0.753548
H      0.710566   -0.723390    3.143356
H      1.458761   -2.315084    2.945963
H     -0.191023   -2.986302    1.250407
H     -0.976305   -2.443965    2.736519
H     -8.553914    2.566295   -1.305788
H     -8.775119    1.236354    0.719168
H     -1.501832   -0.209434    1.651903
H     -0.575819   -0.714755    0.213251
H     -6.425982    2.426786   -2.574993
H     -6.924381   -0.230012    1.508780
H     -2.915928   -2.202047    1.517097
H     -3.553773    1.590455   -3.918210
