55

C      5.245155    1.739660   -2.595597
C     -0.674029   -1.253613   -0.208714
C      4.445223    0.953366   -1.559685
C      5.211109    1.024958   -0.281433
C      4.550015    0.298033    0.867303
C      4.406263   -1.146143    0.524519
C      3.776634   -1.889509    1.651887
C      2.389730   -1.364855    2.002075
C      1.521528   -1.495670    0.798454
C      0.050188    0.292580    1.631334
C     -1.197278    0.880040    2.096058
C     -5.264842   -0.812863   -0.161088
C     -4.421720    1.344778   -0.628096
C     -6.347487    0.624674   -1.758661
C      0.104143   -1.058317    1.088478
C     -4.319548    0.161538    0.069657
C     -6.283479   -0.573711   -1.082858
C     -5.400150    1.616062   -1.535190
C     -3.234396   -0.066148    1.037534
N     -7.246960   -1.559688   -1.321771
N     -5.421951    2.851708   -2.197447
O     -3.171776   -1.156098    1.655734
O     -7.193139   -2.746646   -0.659919
O     -8.159688   -1.359371   -2.140368
O     -4.468987    3.791464   -1.942586
O     -6.311534    3.097331   -3.021674
O     -2.291578    0.901321    1.269907
H      4.522442    2.167567   -3.319604
H      5.786306    2.582721   -2.122942
H      6.005966    1.098009   -3.075298
H     -1.413559   -2.037002   -0.054422
H      0.034152   -1.712471   -0.987683
H     -1.045174   -0.327195   -0.632019
H      3.460787    1.439816   -1.392842
H      4.300279   -0.082088   -1.866888
H      6.232386    0.569229   -0.381755
H      5.354159    2.082675    0.072393
H      5.199280    0.469655    1.753161
H      3.526364    0.715912    1.030015
H      5.413988   -1.618429    0.326500
H      3.815003   -1.331672   -0.379242
H      4.444548   -1.795966    2.539092
H      3.646557   -2.957023    1.385141
H      1.990213   -1.960330    2.844632
H      2.437794   -0.329813    2.333220
H      1.551587   -2.540499    0.403291
H      1.893940   -0.851849   -0.045511
H      0.542860    1.033836    0.913443
H      0.769878    0.401698    2.538968
H     -0.983135    1.999848    2.323280
H     -1.479130    0.485525    3.138264
H     -5.238155   -1.779412    0.364463
H     -3.641786    2.092359   -0.408287
H     -7.119107    0.860128   -2.485265
H     -0.299889   -1.770110    1.865442
