60

C      5.128775    2.110571    3.324476
C     -1.912443   -4.070303   -2.020183
C     -1.901920   -3.338708    0.361225
C      4.727714    0.700594    3.654328
C      5.089570   -0.291439    2.587109
C      4.426628    0.031235    1.261129
C      2.931469    0.011486    1.440622
C      2.202590    0.334425    0.162437
C      2.533866   -0.656229   -0.901797
C      1.799315   -0.315526   -2.170939
C      0.300580   -0.310857   -2.040182
C     -4.324719    3.396930    1.624651
C     -3.505998    2.348279    1.972300
C     -4.736511    3.464695    0.328876
C     -3.128330    1.417735    1.043085
C     -0.236295   -1.655153   -1.605081
C     -2.270368   -2.996386   -1.044075
C     -4.354193    2.509946   -0.642827
C     -3.544191    1.468507   -0.308607
C     -1.738999   -1.638653   -1.482315
C     -4.848643    2.671955   -1.996976
C     -3.083638    0.430912   -1.206910
O     -4.661818    1.985837   -2.997777
O     -5.684075    3.794827   -2.229787
O     -3.316393    0.278177   -2.408681
O     -2.241046   -0.595203   -0.717541
H      4.460854    2.844979    3.851098
H      5.132198    2.327363    2.236617
H      6.176155    2.349899    3.668703
H     -1.052855   -4.649815   -1.576633
H     -1.629358   -3.663264   -3.018546
H     -2.718858   -4.817790   -2.175889
H     -0.927711   -2.926916    0.691315
H     -2.721872   -3.108837    1.081235
H     -1.780872   -4.457198    0.409981
H      3.654239    0.633300    3.937487
H      5.293448    0.409407    4.570037
H      6.176350   -0.320623    2.457999
H      4.708160   -1.276463    2.903467
H      4.813862    0.931302    0.783985
H      4.687764   -0.834566    0.592624
H      2.653490   -1.003119    1.808271
H      2.601642    0.760261    2.195122
H      2.496316    1.357855   -0.132647
H      1.104258    0.356936    0.328524
H      2.258476   -1.699112   -0.613662
H      3.629170   -0.684340   -1.107479
H      2.070625   -1.135025   -2.901476
H      2.178048    0.614247   -2.642919
H     -0.103806   -0.120143   -3.066546
H      0.004966    0.474167   -1.332773
H     -4.615682    4.130869    2.382223
H     -3.161817    2.271779    3.006877
H     -5.379182    4.278629    0.033581
H     -2.487156    0.597226    1.317088
H      0.014923   -2.379820   -2.407503
H      0.264609   -2.010926   -0.686947
H     -3.391675   -2.893141   -1.071950
H     -2.126341   -1.500836   -2.523577
H     -5.933290    4.056059   -3.169968
