50

C      7.790219   -1.274728    0.202160
C     -7.098530   -0.439153   -1.307456
C     -1.165087    2.315694   -0.150390
C      5.834608   -0.064827   -0.784573
C      5.543428   -2.331234   -0.149672
C     -6.114199    0.756190    0.671844
C     -4.845616   -0.947272   -0.321709
C      4.517399    0.000989   -1.209817
C      4.231303   -2.258484   -0.575570
C     -5.108263    0.969093    1.592396
C     -3.837262   -0.735362    0.599439
C      0.576862    1.263586    1.286765
C      1.398895    0.784562    0.141904
C      6.362002   -1.229505   -0.250546
C     -6.007730   -0.206815   -0.307498
C     -0.891341    1.362021    0.982378
C      3.694638   -1.101278   -1.110053
C     -3.938107    0.228429    1.583408
N      1.036548   -0.518250   -0.326003
N     -1.583052    1.672018    2.186222
O      1.575082   -2.369881   -2.132089
O      1.870938   -0.046023   -2.783748
O     -3.328807    1.034292    3.998721
O     -2.001344   -0.791912    3.132597
S      2.019347   -1.021425   -1.649588
S     -2.665129    0.499948    2.753162
H      8.394294   -1.719823   -0.625106
H      7.847284   -1.981705    1.063620
H      8.159307   -0.265988    0.448263
H     -7.039896   -1.464277   -1.673439
H     -8.067653   -0.180623   -0.837258
H     -6.948037    0.245074   -2.189366
H     -0.652551    3.292721   -0.016916
H     -0.735101    1.864690   -1.069336
H     -2.244112    2.387749   -0.293970
H      6.474944    0.794156   -0.862578
H      5.946399   -3.245759    0.266238
H     -7.025138    1.362608    0.711437
H     -4.749751   -1.709266   -1.088679
H      4.088000    0.910748   -1.632306
H      3.555247   -3.109375   -0.511099
H     -5.182252    1.732306    2.375673
H     -2.914960   -1.333309    0.578457
H      0.916261    2.239706    1.641881
H      0.676531    0.512068    2.119563
H      1.312486    1.524831   -0.679726
H      2.467097    0.781845    0.439804
H     -1.221986    0.358396    0.643721
H      0.056886   -0.605903   -0.613934
H     -0.980100    2.058458    2.941617
