50

C     -7.493652   -2.500130   -0.388440
C      7.484156   -1.816649   -0.604402
C      1.183450    2.666643   -1.146841
C     -6.522795   -0.229699   -0.403845
C     -5.756083   -1.840024    1.233321
C      5.762767   -0.071604   -0.602206
C      6.145554   -1.292082    1.399378
C     -5.507619    0.590427   -0.022876
C     -4.745305   -0.999067    1.568432
C      4.627523    0.529440    0.003713
C      5.024841   -0.693233    1.994270
C      0.057581    1.146454    0.466683
C     -1.045406    0.796579   -0.509896
C     -6.627554   -1.489173    0.281149
C      6.456639   -0.978890    0.125021
C      1.300587    1.597593   -0.140281
C     -4.595029    0.249698    0.951664
C      4.273225    0.191558    1.262665
N     -1.823898    0.096203    0.491093
N      2.082912    1.986318    1.074195
O     -3.107344    2.379322    0.426861
O     -2.656405    1.227232    2.517795
O      2.426075    0.507675    3.241142
O      1.878377   -0.649096    1.179031
S     -3.191721    1.024340    1.032057
S      2.701336    0.594939    1.792514
H     -8.373351   -2.656763    0.157078
H     -6.831709   -3.437910   -0.447226
H     -7.592486   -2.210840   -1.467808
H      8.357617   -1.208889   -0.751847
H      7.022898   -2.075442   -1.607622
H      7.639331   -2.754068   -0.034660
H      0.328263    3.380280   -1.069102
H      0.975774    2.131936   -2.137147
H      2.159961    3.193966   -1.278280
H     -7.244289    0.064064   -1.104715
H     -5.831333   -2.771608    1.706351
H      6.030165    0.139407   -1.625391
H      6.773565   -1.917500    2.010669
H     -5.344632    1.545802   -0.559121
H     -3.996063   -1.256951    2.332330
H      4.097521    1.267917   -0.544779
H      4.701629   -1.012238    2.959550
H     -0.516213    2.242681    0.832966
H      0.046883    0.712261    1.395109
H     -0.351101   -0.303840   -0.821846
H     -1.091872    1.127936   -1.416721
H      1.690998    0.634910   -0.519078
H     -2.563561   -0.412898   -0.514479
H      1.579794    2.553014    1.719736
