67

C      8.271490   -0.316209   -2.488110
C      0.603607   -6.589850   -0.420367
C     -8.141902    3.952616    1.728397
C      6.343780    0.988581   -1.557872
C      6.756007   -1.157831   -0.682316
C     -1.020552   -5.019155   -1.491233
C     -0.144913   -4.432062    0.617458
C     -5.999805    4.055373    0.416435
C     -5.891840    3.342254    2.649199
C      5.266776    1.122125   -0.695745
C      5.685098   -1.028628    0.177045
C     -1.759373   -3.847923   -1.490789
C     -0.881655   -3.262140    0.619941
C     -4.635313    3.897256    0.296373
C     -4.527018    3.180713    2.540018
C      0.598038    0.054745   -1.429686
C      1.838672    0.507951   -0.717419
C     -0.766138    1.635627   -0.156434
C      7.109381   -0.158855   -1.565189
C     -0.196021   -5.330003   -0.427861
C     -6.667299    3.782308    1.596639
C     -0.599939    0.186020   -0.556088
C      4.916861    0.113125    0.189902
C     -1.705931   -2.949047   -0.440537
C     -3.875897    3.456418    1.358872
N      2.111229   -0.253186    0.495634
N     -1.819638   -0.224190   -1.186318
O      3.754796   -0.331165    2.587133
O      3.345494    1.800908    1.510325
O     -3.927258   -1.730719   -1.229793
O     -3.065900   -1.116960    0.938113
O     -1.541935    4.228127    0.253157
O     -1.517967    3.397992    2.587862
O     -1.864180    1.673773    0.716269
S      3.554607    0.323036    1.256564
S     -2.653683   -1.478304   -0.471457
S     -2.141663    3.248942    1.227628
H      9.020730    0.483230   -2.327900
H      7.934266   -0.290176   -3.546054
H      8.761109   -1.278237   -2.277463
H      0.209907   -7.209668    0.412935
H      0.425728   -7.118334   -1.360726
H      1.672296   -6.324924   -0.275699
H     -8.533908    4.217449    0.726217
H     -8.628275    3.057975    2.144042
H     -8.309380    4.862898    2.368333
H      6.614240    1.764108   -2.239563
H      7.354087   -2.054897   -0.687625
H     -1.085558   -5.702174   -2.330422
H      0.494521   -4.653788    1.462748
H     -6.622271    4.406099   -0.420059
H     -6.393191    3.123568    3.579816
H      4.660929    2.012092   -0.679722
H      5.431720   -1.826823    0.856975
H     -2.418344   -3.583923   -2.324050
H     -0.836691   -2.556874    1.449669
H     -4.138527    4.119201   -0.642128
H     -3.924577    2.829366    3.388619
H      0.493118    0.750028   -2.315868
H      0.753668   -0.979235   -1.811510
H      2.740103    0.442374   -1.404033
H      1.811167    1.577729   -0.432820
H     -0.877653    2.301384   -1.019012
H      0.084191    2.023820    0.454755
H     -0.475913   -0.469242    0.326077
H      1.309218   -0.143462    1.158440
H     -2.336720    0.498774   -1.679968
