52

C     -0.384143   -1.604850   -2.161615
C     -2.360857   -1.887292   -0.687430
C     -6.788913    1.258405   -0.973762
C      6.392262    2.832129   -0.629737
C     -5.465100    0.182765    0.869490
C     -4.367944    1.737037   -0.518585
C      5.185237    1.402840    1.023320
C      5.253370    0.684269   -1.243794
C     -4.290800    0.012020    1.570489
C     -3.179020    1.572545    0.181196
C      4.446912    0.259548    1.302899
C      4.515135   -0.453289   -0.949096
C      1.161686   -0.620595    0.190067
C     -0.860645   -1.728938   -0.742327
C     -5.522357    1.056040   -0.195821
C      5.591023    1.608895   -0.278932
C     -3.121953    0.706315    1.237956
C      4.110992   -0.659794    0.344420
C     -0.373622   -0.624498    0.153437
N     -0.805974   -0.867005    1.494390
O     -0.851694    1.695504    2.240851
O     -2.120675    0.109665    3.579812
O      3.677359   -3.201381   -0.124150
O      3.488231   -2.517550    2.184080
O      1.552863   -1.851107    0.644399
S     -1.672239    0.430618    2.184981
S      3.188369   -2.063363    0.761426
H     -1.192714   -1.833678   -2.907588
H      0.038383   -0.589833   -2.340673
H      0.441647   -2.314509   -2.374111
H     -2.685946   -2.746051   -1.308967
H     -2.877488   -0.989969   -1.136591
H     -2.719639   -2.090356    0.342084
H     -6.521066    1.222225   -2.057243
H     -7.518916    0.479173   -0.706766
H     -7.198333    2.276436   -0.805678
H      7.083640    2.634076   -1.466318
H      6.993010    3.092151    0.262862
H      5.739397    3.688928   -0.871573
H     -6.373890   -0.354957    1.125522
H     -4.382680    2.437146   -1.359479
H      5.450821    2.129244    1.779833
H      5.581078    0.860909   -2.267737
H     -4.275348   -0.689104    2.412902
H     -2.294944    2.125661   -0.102378
H      4.150814    0.147351    2.356970
H      4.286252   -1.138013   -1.760873
H      1.462199    0.141022    0.944487
H      1.586242   -0.325976   -0.779687
H     -0.435966   -2.681515   -0.333171
H     -0.669681    0.373058   -0.246536
H     -0.064377   -1.155260    2.142742
