52

C      0.112020   -0.899903    1.419503
C      0.176167    1.525858    2.042307
C      6.698100   -1.672962    0.447018
C     -6.095515   -3.267798   -0.081954
C      4.655530   -1.262536   -0.882200
C      5.646525    0.559564    0.265114
C     -5.330412   -1.171647    1.034574
C     -4.797214   -1.495053   -1.251787
C      3.677141   -0.383123   -1.349108
C      4.690317    1.413146   -0.192657
C     -4.666280    0.034222    0.949669
C     -4.132824   -0.288201   -1.335826
C     -0.957191    0.980309   -0.659016
C      0.697621    0.450165    1.141237
C      5.642023   -0.779311   -0.070869
C     -5.388510   -1.940016   -0.096512
C      3.671470    0.953819   -1.020683
C     -4.068518    0.492682   -0.203428
C      0.505152    0.895011   -0.291520
N      1.173075    2.149156   -0.455989
O      3.094138    3.403331   -1.820924
O      1.921931    1.568455   -2.890408
O     -3.878474    2.987714    0.720958
O     -3.458863    2.601105   -1.639573
O     -1.636554    1.906423    0.127138
S      2.464532    2.083954   -1.583458
S     -3.244194    2.021290   -0.253939
H     -0.936836   -0.867490    1.753769
H      0.298790   -1.547541    0.554226
H      0.690437   -1.341223    2.278414
H      0.831525    1.636434    2.948055
H      0.227434    2.491379    1.506893
H     -0.870780    1.261130    2.333864
H      6.511804   -1.880562    1.528445
H      6.763066   -2.618626   -0.111989
H      7.685955   -1.189514    0.393979
H     -6.676294   -3.336000    0.851915
H     -6.820341   -3.344313   -0.918010
H     -5.391100   -4.105079   -0.172997
H      4.642441   -2.319276   -1.154070
H      6.452442    0.912535    0.917529
H     -5.795247   -1.528669    1.930431
H     -4.860522   -2.130665   -2.137896
H      2.907899   -0.771478   -1.985744
H      4.683158    2.482939    0.068268
H     -4.644267    0.618947    1.882417
H     -3.687932    0.003082   -2.279792
H     -1.438854    0.003399   -0.513059
H     -1.051751    1.259906   -1.723688
H      1.804740    0.384240    1.298661
H      0.944821    0.099945   -0.927847
H      0.558222    2.960843   -0.571482
