55

C      2.268270   -0.082903    2.526471
C      2.738714    1.884266    1.158653
C      6.843127   -0.001861   -1.532566
C     -7.251471   -1.948214   -0.001432
C      4.425706    0.065264   -1.950413
C      5.188414   -1.509436   -0.371040
C     -5.494603   -0.859572   -1.396855
C     -5.942677    0.071094    0.724363
C      3.111464   -0.352218   -1.754588
C      3.890812   -1.912290   -0.186398
C     -4.538930    0.118893   -1.591536
C     -4.993408    1.045684    0.534906
C      0.357413    1.207684    1.488078
C     -1.355079    0.541296   -0.180717
C      1.714610    1.228179    2.083238
C      5.474058   -0.511661   -1.258758
C     -6.212569   -0.893148   -0.225691
C      0.144556    0.404198    0.261840
C      2.818721   -1.360012   -0.858578
C     -4.284157    1.070740   -0.633890
N      0.296843   -1.005439    0.524151
O      1.232226   -3.332285   -0.224322
O      0.422198   -1.879975   -1.958210
O     -3.484899    3.550038   -0.271930
O     -3.026228    2.557504   -2.427443
O     -1.563044    1.861801   -0.444817
S      1.171965   -1.869985   -0.645599
S     -3.074069    2.273351   -0.933377
H      1.581838   -0.937214    2.466936
H      3.269767   -0.275831    2.077265
H      2.500847    0.002047    3.634042
H      3.722842    1.447668    1.395857
H      2.409343    1.728455    0.107406
H      2.794979    2.960428    1.410628
H      7.586050   -0.462724   -0.852110
H      7.151940   -0.190069   -2.580950
H      6.895522    1.111890   -1.399165
H     -7.205738   -2.336389    1.035973
H     -7.063006   -2.801589   -0.685351
H     -8.258605   -1.543845   -0.219275
H      4.607824    0.855797   -2.660243
H      6.027206   -1.955371    0.167764
H     -5.712437   -1.625463   -2.145578
H     -6.530130    0.026652    1.657832
H      2.332216    0.137713   -2.325630
H      3.698492   -2.717860    0.535946
H     -3.989922    0.102300   -2.548867
H     -4.811515    1.792531    1.316922
H     -0.351575    0.901422    2.310520
H      0.072622    2.263270    1.270127
H     -1.406991   -0.032324   -1.128189
H     -2.010325    0.068266    0.542732
H      1.665749    1.904573    2.977697
H      0.699369    0.693008   -0.633385
H     -0.554328   -1.478334    0.859859
