59

C     -4.557250   -5.522023   -0.579737
C      7.337158   -1.227311    1.332669
C     -2.143950    5.700002   -1.369144
C     -0.775859    5.762006   -1.118123
C     -2.919627    4.778112   -0.711324
C     -0.197544    4.909899   -0.219732
C     -2.301670    3.919004    0.202491
C     -3.510658   -3.350978   -1.279308
C     -4.432079   -3.522123    0.883717
C      4.938014   -1.897494    0.979795
C      5.941350   -0.471718   -0.610103
C     -0.251717    3.105668    1.427178
C      0.400068    1.896614    0.865195
C     -3.155298   -2.033209   -1.001121
C     -4.077252   -2.204648    1.163026
C      3.747911   -1.876611    0.268845
C      4.762757   -0.446935   -1.320464
C      0.354776   -0.277869   -0.326987
C     -4.157541   -4.112345   -0.330582
C      6.058178   -1.201400    0.563347
C     -0.957689    3.965638    0.461420
C     -0.487531    0.911552    0.215774
C     -3.431771   -1.448541    0.213078
C      3.641427   -1.152391   -0.890455
N     -1.387091    0.294826    1.165774
O     -3.095547    0.963047   -0.796501
O     -3.927211    0.813858    1.488428
O      1.389726   -2.337901   -1.606914
O      2.457665   -0.926487   -3.302901
O      1.262649    0.206737   -1.259555
S     -2.955628    0.237527    0.510902
S      2.162587   -1.087947   -1.831794
H     -4.733499   -6.008417    0.379699
H     -3.833726   -6.045008   -1.239497
H     -5.544709   -5.533300   -1.127907
H      7.646825   -0.201011    1.621511
H      7.143421   -1.822823    2.257539
H      8.080701   -1.750227    0.711997
H     -2.609491    6.366431   -2.075174
H     -0.183736    6.500139   -1.650942
H     -3.996306    4.713096   -0.894289
H      0.885344    4.993189   -0.051579
H     -2.926500    3.220413    0.706210
H     -3.289923   -3.805460   -2.237957
H     -4.945498   -4.118251    1.643847
H      5.018261   -2.473116    1.898765
H      6.821435    0.084823   -0.951483
H     -0.971454    2.838946    2.239799
H      0.554112    3.698892    1.957547
H      0.959262    1.343584    1.681704
H      1.166420    2.244017    0.096776
H     -2.647066   -1.447169   -1.757010
H     -4.291603   -1.737998    2.116855
H      2.865109   -2.432227    0.607530
H      4.652984    0.116237   -2.237339
H     -0.312256   -0.993375   -0.846638
H      0.814677   -0.797329    0.528187
H     -1.047222    1.285591   -0.639551
H     -1.006916   -0.606208    1.488146
