47

C     -6.905495   -0.353616    0.487542
C     -0.626927   -0.691727    1.201611
C      5.797833    1.680646    2.750678
C      4.274089    1.665744   -2.518789
C     -4.999909    0.925814   -0.517564
C     -4.900035   -1.431349   -0.538345
C      2.570640   -0.891354    1.563742
C     -3.777489    0.938178   -1.151624
C     -3.675452   -1.436352   -1.173355
C      3.622078   -0.054727    1.956226
C      1.079949   -1.751673   -0.271509
C      2.841369   -0.086890   -0.647659
C     -5.578895   -0.279301   -0.201448
C     -0.262135   -1.066091   -0.214995
C      2.176194   -0.906098    0.242277
C     -3.103464   -0.234249   -1.485694
C      4.276440    0.757777    1.054789
C      3.878092    0.739254   -0.265538
N     -0.349474    0.075514   -1.061453
O     -1.283518   -1.239899   -3.188568
O     -1.622666    1.177362   -3.130200
O      5.317075    1.585981    1.442376
O      4.552283    1.566855   -1.156985
S     -1.564372   -0.066143   -2.290099
H     -7.353237   -1.358160    0.340515
H     -6.731894   -0.125236    1.548544
H     -7.531886    0.440996    0.035342
H     -0.466194   -1.534022    1.903208
H     -1.712778   -0.445445    1.250091
H     -0.087835    0.217483    1.542408
H      5.767118    0.703395    3.284958
H      6.828223    2.089687    2.784535
H      5.154139    2.402540    3.307182
H      4.781724    2.593607   -2.901684
H      3.183706    1.850121   -2.717443
H      4.549489    0.776535   -3.111105
H     -5.503636    1.852867   -0.268558
H     -5.375333   -2.386387   -0.279257
H      2.058316   -1.530344    2.280627
H     -3.342050    1.904630   -1.390149
H     -3.160387   -2.354635   -1.430600
H      3.902999   -0.069981    2.998993
H      1.306101   -2.012629   -1.315765
H      1.023692   -2.671380    0.315928
H      2.564556   -0.064015   -1.705369
H     -1.011979   -1.814744   -0.542262
H     -0.579065    0.911460   -0.488400
