64

C     -1.674250   -6.425842    0.339283
C      8.190544   -0.031553   -0.693137
C     -3.984000    4.462780   -4.284940
C     -3.940545    4.805181    1.209158
C     -1.689437   -4.149975   -0.628546
C     -2.669419   -4.494707    1.510247
C      6.133305   -1.431685   -0.417270
C      6.320496    0.514570    0.892803
C     -1.058596    2.209030   -1.925278
C     -2.008433   -2.824519   -0.562959
C     -2.980592   -3.161756    1.556842
C      4.907241   -1.716214    0.150709
C      5.094142    0.229924    1.460896
C     -1.973722    2.910825   -2.709771
C     -0.123839    1.591956    0.314212
C     -2.039512    3.151598   -0.001427
C      0.404447   -0.427148    1.598011
C     -2.022390   -5.003034    0.420935
C      6.867467   -0.316409   -0.063737
C     -1.082799    2.323558   -0.552515
C     -0.652239    0.234338    0.715272
C     -2.655628   -2.314228    0.526171
C      4.362244   -0.884393    1.106669
C     -2.930545    3.738707   -2.164288
C     -2.944838    3.845919   -0.777038
N     -1.867154    0.302564    1.460949
O     -4.374399   -0.488071    1.405240
O     -3.263237   -0.088147   -0.755335
O      2.641292   -2.715646    1.958437
O      2.761383   -0.604795    3.214990
O     -3.857889    4.453954   -2.901267
O     -3.902149    4.677088   -0.186530
O      1.619939   -0.523716    0.923336
S     -3.079226   -0.619468    0.653547
S      2.805129   -1.237088    1.835457
H     -0.899955   -6.643666   -0.425919
H     -2.572313   -7.028550    0.091695
H     -1.302474   -6.795716    1.324682
H      8.916706    0.360719    0.033307
H      8.032931    0.739355   -1.474330
H      8.597167   -0.945042   -1.150434
H     -3.250626    3.898534   -4.855858
H     -4.998392    4.155280   -4.636245
H     -3.885794    5.533644   -4.618957
H     -4.784689    5.455406    1.484629
H     -4.146274    3.795901    1.629700
H     -2.973436    5.155429    1.599466
H     -1.172053   -4.574839   -1.491463
H     -2.913272   -5.191578    2.310244
H      6.575013   -2.080156   -1.173234
H      6.882905    1.403245    1.188836
H     -0.310505    1.562070   -2.346078
H     -1.739625   -2.177460   -1.398302
H     -3.487852   -2.764724    2.411383
H      4.341533   -2.603313   -0.141835
H      4.647072    0.877353    2.219625
H     -1.925153    2.796759   -3.782169
H      0.122877    2.218645    1.174905
H      0.822267    1.390025   -0.264370
H     -2.074791    3.255638    1.086943
H      0.096021   -1.477308    1.821994
H      0.589235    0.153133    2.522595
H     -0.757247   -0.373994   -0.192958
H     -1.762067   -0.088388    2.423021
