55

C      5.587930   -1.667580    1.137212
C      4.988459    0.690558    0.874120
C      0.900223    1.957765   -0.751845
C     -4.988294   -0.344016    0.878522
C     -3.312422   -3.291148    1.060251
C     -4.611206    2.999803    0.005427
C      0.048142   -1.395924    2.509799
C     -1.636722    2.152371   -2.769912
C      2.781813   -0.217759   -1.026369
C      3.910361   -1.066706   -0.541993
C      1.583177   -0.305125   -0.022142
C      4.453650   -0.703585    0.803180
C      0.499030    0.524450   -0.579136
C     -3.560541   -0.110657    0.532465
C     -0.879967    0.344057   -0.133663
C     -2.595421   -0.980674    0.977982
C     -3.209538    0.973335   -0.234025
C     -1.263379   -0.745786    0.642678
C     -1.871375    1.206810   -0.573151
O     -2.987766   -2.069004    1.750839
O     -4.173795    1.854538   -0.684245
O     -0.391635   -1.692253    1.166889
O     -1.560988    2.300984   -1.359118
H      6.347801   -1.196556    1.765444
H      6.051756   -1.960138    0.152652
H      5.208101   -2.592550    1.611319
H      4.254069    1.378817    1.350416
H      5.246184    1.056984   -0.141260
H      5.917635    0.683593    1.474215
H      1.926893    2.084803   -0.253962
H      0.984372    2.248060   -1.783764
H      0.215903    2.653294   -0.200583
H     -5.085668   -1.083946    1.671487
H     -5.589268   -0.633618   -0.005747
H     -5.384401    0.619245    1.302873
H     -3.872364   -3.989784    1.720083
H     -2.378343   -3.787964    0.710780
H     -3.917127   -3.058916    0.147646
H     -4.173622    3.904635   -0.462167
H     -5.737127    3.055164   -0.061944
H     -4.294448    2.944854    1.081160
H     -0.011898   -0.303379    2.714193
H      1.071707   -1.746651    2.695322
H     -0.650248   -1.875540    3.251704
H     -1.729167    1.082980   -2.995367
H     -2.599682    2.617954   -3.073042
H     -0.790667    2.579773   -3.313731
H      2.409117   -0.676790   -1.969942
H      3.082439    0.810944   -1.188514
H      4.726179   -1.023602   -1.286221
H      3.574339   -2.134427   -0.500634
H      1.387220   -1.404015    0.013708
H      1.953548    0.013840    0.968736
H      3.693825   -0.823889    1.585561
H      0.453206    0.142368   -1.712888
