53

C     -1.049276    4.070633   -1.969725
C      3.478329    1.980364   -4.419285
C     -0.758430   -5.974107    2.169853
C     -0.665251   -5.088647    3.224783
C     -0.915887   -5.527814    0.871801
C     -0.731646   -3.725991    2.970565
C     -0.978210   -4.149470    0.657747
C     -1.837232    1.728653   -1.544975
C     -1.763578    3.255022    0.282702
C      2.272487    2.645071   -2.310681
C      3.402592    0.586867   -2.327506
C     -2.314203    0.726397   -0.692794
C     -2.233150    2.254568    1.102109
C      1.886943    2.397461   -1.009465
C      3.022193    0.330295   -1.027022
C      0.417864   -1.169273    1.552236
C     -1.560088    2.989658   -1.070671
C      3.045594    1.736276   -3.003132
C     -0.886061   -3.263830    1.703610
C     -2.517555    0.975413    0.636723
C      2.254712    1.239622   -0.349457
C     -0.954786   -1.802581    1.451232
N     -1.809954   -1.122232    2.376581
O     -4.000434   -1.208152    0.916395
O     -3.881454    0.369666    2.830970
O      2.727555    0.236153    2.109121
O      1.570123    2.356938    1.928273
O      0.260679    0.174794    1.220799
S     -3.113708   -0.275716    1.695649
S      1.726139    0.994037    1.300467
H     -0.301481    4.679310   -1.444110
H     -1.888834    4.657935   -2.390579
H     -0.552794    3.551412   -2.830739
H      2.889326    2.826725   -4.813020
H      3.457730    1.076337   -5.024010
H      4.546907    2.318962   -4.336576
H     -0.707793   -7.026300    2.360288
H     -0.542057   -5.428855    4.242173
H     -0.990709   -6.218339    0.030216
H     -0.654638   -3.065924    3.823279
H     -1.101836   -3.837929   -0.371425
H     -1.690703    1.489403   -2.588054
H     -1.533631    4.256355    0.611722
H      1.966395    3.566806   -2.802378
H      4.012976   -0.135405   -2.867270
H     -2.517905   -0.248734   -1.116190
H     -2.386688    2.470561    2.145394
H      1.270110    3.134661   -0.471407
H      3.306993   -0.573200   -0.505932
H      1.173254   -1.683126    0.924321
H      0.774835   -1.274237    2.610218
H     -1.304103   -1.640739    0.404896
H     -1.319659   -0.635755    3.132280
