47

C      6.859062    0.756606   -1.363943
C      0.223808    0.745109   -0.939921
C     -5.942098   -2.779077    0.271417
C     -4.287633    1.508947   -2.803092
C      5.155027   -0.891029   -0.542692
C      4.969344    1.327125    0.190235
C     -2.602108   -0.575769    1.514405
C      4.039430   -1.227363    0.194104
C      3.852174    0.986947    0.927238
C     -3.704095   -1.288613    1.088016
C     -1.036801    1.270231    1.157844
C     -2.875106    0.840390   -0.429965
C      5.649226    0.395244   -0.563921
C      0.267145    0.713979    0.581263
C     -2.206706    0.494497    0.727112
C      3.351598   -0.299541    0.952987
C     -4.396899   -0.970806   -0.064303
C     -3.967650    0.102128   -0.816299
N      0.480544   -0.651038    1.014580
O      2.065216   -2.145833    2.431998
O      1.797935    0.155377    3.104934
O     -5.506699   -1.679163   -0.504736
O     -4.645880    0.441031   -1.976438
S      1.939960   -0.739545    1.887432
H      7.564018   -0.081312   -1.310267
H      7.366703    1.629146   -0.886379
H      6.577270    1.036737   -2.393102
H     -0.342266   -0.109825   -1.348584
H     -0.168508    1.706738   -1.283600
H      1.299549    0.655122   -1.267101
H     -5.128619   -3.543011    0.218154
H     -6.026860   -2.467633    1.325891
H     -6.914049   -3.176610   -0.074495
H     -4.920618    1.452401   -3.723263
H     -3.215735    1.382806   -3.078519
H     -4.426988    2.458975   -2.252592
H      5.675594   -1.640978   -1.129844
H      5.366343    2.346876    0.169556
H     -2.070370   -0.837799    2.419735
H      3.643611   -2.250340    0.213052
H      3.327405    1.744296    1.522892
H     -4.044941   -2.126346    1.668715
H     -1.131326    2.315513    0.839279
H     -0.944625    1.247655    2.249532
H     -2.560852    1.667230   -1.028215
H      1.054100    1.419197    0.883779
H      0.542370   -1.318672    0.208721
