38

C     -0.720730   -2.147634   -0.019665
C     -1.258628   -1.314060    2.233822
C     -1.660540    3.170307   -1.124726
C      3.342884   -0.235260   -0.153315
C      2.541878    1.014686   -0.388546
C     -2.953079   -1.275018    0.481453
C      4.798925    0.072234   -0.166568
C     -1.057707    0.304354    0.332169
C      0.388643    0.501497    0.576462
C     -1.473413   -1.107598    0.752574
N      1.142800    0.784660   -0.387063
O     -3.284719   -2.572643    0.909667
O      5.169450    1.270978   -0.361522
O      5.771519   -0.875104    0.021675
O      0.912186    0.377515    1.846992
O     -3.704077    1.415454   -0.910414
O     -2.484342    1.491559   -2.991181
O     -1.276101    0.377423   -1.033605
S     -2.344474    1.552233   -1.488833
H     -0.645132   -1.851437   -1.093890
H      0.262974   -2.402642    0.415653
H     -1.321307   -3.078274   -0.007625
H     -2.037723   -1.996441    2.667225
H     -1.266661   -0.384130    2.803932
H     -0.288888   -1.834915    2.373767
H     -2.077906    3.936051   -1.793188
H     -1.912962    3.406999   -0.060649
H     -0.570315    3.175020   -1.204488
H      3.058552   -0.960540   -0.945718
H      3.064323   -0.635266    0.863066
H      2.819770    1.415691   -1.402091
H      2.850509    1.832824    0.322626
H     -3.561471   -0.525629    1.030436
H     -3.105848   -1.251063   -0.612946
H     -1.649865    1.049154    0.899974
H     -3.964767   -2.936534    0.296080
H      6.763167   -0.667225    0.105600
H      1.733075    0.902778    2.152153
