46

C     -2.801253   -1.652245   -0.171057
C     -0.706008   -2.762912    0.412813
C      3.663244   -0.050742    2.179736
C      3.614049   -0.339512   -0.157301
C      5.041852   -0.036685    2.165517
C      5.008943   -0.325931   -0.176897
C     -3.496401    3.595146   -0.132299
C     -2.463247    2.814691   -0.913665
C     -1.116414   -2.053106   -1.884964
C      2.936205   -0.201146    1.027749
C      5.732145   -0.174755    0.981728
C     -4.598224    2.665069    0.237095
C     -0.723951   -0.375281   -0.045252
C     -1.314109    0.778374   -0.780707
C      1.464816   -0.210908    1.084330
C     -1.313653   -1.684325   -0.453295
N     -1.910592    1.723038   -0.155113
N      7.145867   -0.154114    1.017551
O     -1.690987   -3.315762   -2.077638
O     -4.586362    1.450562   -0.089295
O     -5.673516    3.125924    0.957929
O     -1.248934    0.887714   -2.162858
O      0.850081   -0.083517    2.172575
O      7.830571   -0.002089    2.186873
O      7.824518   -0.275697   -0.031890
O      0.677394   -0.356446   -0.021693
H     -3.294331   -1.322587   -1.120318
H     -3.158050   -2.675196    0.050811
H     -3.031389   -0.921188    0.629047
H      0.357285   -2.554161    0.536069
H     -0.933764   -3.768098    0.032658
H     -1.176530   -2.637714    1.431061
H      3.148447    0.058508    3.113670
H      3.048245   -0.459431   -1.076950
H      5.602510    0.085611    3.104983
H      5.546192   -0.435433   -1.114896
H     -3.051574    4.010093    0.791371
H     -3.875870    4.398626   -0.793427
H     -2.860783    2.406191   -1.852184
H     -1.653782    3.558263   -1.170589
H     -1.589249   -1.380181   -2.609919
H     -0.018707   -2.200594   -2.098660
H     -1.018635   -0.247019    1.020536
H     -2.584906   -3.249345   -2.505810
H     -6.524168    2.557511    1.089602
H     -1.076972    1.790803   -2.627025
