38

C     -2.836145    0.944881    0.729219
C     -1.726724    1.841295   -1.236516
C     -3.958369   -2.678566   -0.295898
C      3.931645   -0.211163    0.327507
C      2.871186   -0.539726   -0.698857
C     -0.617674    2.051172    0.917809
C      5.278310   -0.182837   -0.299224
C     -0.834792   -0.217547   -0.101206
C      0.491299   -0.148275   -0.732176
C     -1.483053    1.134705    0.074370
N      1.556854   -0.578313   -0.141467
O     -0.400363    1.549857    2.188942
O      5.370670   -0.422590   -1.542362
O      6.399041    0.094918    0.441354
O      0.692950    0.385062   -2.009699
O     -1.500375   -3.603543   -0.023560
O     -2.253019   -1.998675    1.611296
O     -1.720588   -1.065618   -0.720354
S     -2.267544   -2.338155    0.147072
H     -3.459578    1.859340    0.664268
H     -2.743677    0.698382    1.816670
H     -3.399296    0.107989    0.269239
H     -0.765089    2.217649   -1.668370
H     -2.320061    2.750910   -1.002543
H     -2.315938    1.252944   -1.948970
H     -4.651107   -2.546370    0.562197
H     -4.083497   -3.702692   -0.710105
H     -4.296860   -1.981469   -1.107601
H      3.694775    0.828409    0.688242
H      3.879377   -0.936276    1.159498
H      2.981487    0.191551   -1.539814
H      3.102247   -1.556161   -1.113888
H     -1.164877    3.024029    0.989423
H      0.335292    2.205667    0.367633
H     -0.694367   -0.611495    0.930026
H      0.303957    2.109263    2.602670
H      7.292982    0.179510   -0.052041
H      1.310919   -0.108062   -2.671064
