46

C      5.655522    0.864892    1.385546
C      1.375559    0.744610   -1.191956
C     -3.740384   -1.477109    0.616834
C      1.740864    2.083329   -1.084602
C     -4.896837   -0.719219    0.758749
C      1.781874   -1.638223   -0.742277
C     -1.433031   -1.825449   -0.356731
C      3.304957    0.157076    0.024445
C     -2.845922    0.134517   -0.833644
C      1.588537   -2.026218    1.727752
C     -5.377528    2.636053   -0.481479
C      2.164442   -0.230000   -0.632276
C     -2.688256   -1.087421   -0.170117
C      0.927520   -2.137378    0.385211
C     -0.348756   -1.371797    0.585259
C      2.882095    2.447763   -0.425494
C     -5.025500    0.479186    0.094777
C      3.685124    1.465196    0.143348
C     -3.983643    0.890044   -0.700382
C     -0.646661   -1.592278    2.007408
O      3.243690    3.777051   -0.319582
O     -1.713166   -1.325259    2.612787
O      4.839709    1.864364    0.807546
O      0.456569   -2.155993    2.609042
O     -6.022985    1.459062    0.018186
O     -4.341426    2.102968   -1.253847
H      5.011579    0.290606    2.077584
H      6.490769    1.339899    1.908911
H      5.988513    0.150177    0.593819
H      0.452107    0.523734   -1.733048
H     -3.689221   -2.401592    1.139503
H      1.101316    2.829506   -1.534560
H     -5.679519   -1.084686    1.390759
H      1.319923   -1.903567   -1.703980
H      2.734588   -2.238473   -0.693127
H     -1.078760   -1.636250   -1.384650
H     -1.567780   -2.916733   -0.186915
H      3.970214   -0.579855    0.489157
H     -2.023872    0.473378   -1.470017
H      2.003098   -1.011019    1.917936
H      2.324845   -2.830106    1.928771
H     -5.013116    3.272954    0.349251
H     -6.065804    3.182659   -1.139598
H      0.661931   -3.196508    0.228352
H     -0.171442   -0.261266    0.439887
H      2.648264    4.477374   -0.738961
