36

C      2.668690    1.910739   -0.714686
C      2.712941    0.157645    1.709203
C      3.521507   -1.778508    0.345451
C      2.294200    0.625047   -1.356589
C     -4.324239    1.373253    0.969138
C     -3.090447    1.861119    1.301114
C     -4.434005    0.282936    0.156102
C     -2.002252    1.220657    0.792582
C      2.343682   -0.886907    0.683739
C     -3.306204   -0.379652   -0.370066
C     -2.071925    0.093121   -0.049372
C      1.619455   -0.384296   -0.504782
C     -3.534602   -1.522567   -1.220495
C     -0.834099   -0.495744   -0.522566
O     -2.686149   -2.234829   -1.778984
O     -4.870556   -1.902588   -1.466993
O     -0.663280   -1.469663   -1.255047
O      0.375821    0.114185   -0.099006
H      2.449585    2.746462   -1.448757
H      2.086864    2.172962    0.170404
H      3.779352    2.007852   -0.572244
H      3.559510    0.786458    1.457440
H      1.782190    0.682666    2.005225
H      3.023797   -0.386158    2.653330
H      4.346312   -1.639857    1.075694
H      3.863377   -1.563247   -0.687455
H      3.257956   -2.856630    0.361192
H      1.555559    0.860545   -2.181116
H      3.175477    0.226772   -1.909712
H     -5.197378    1.878513    1.370730
H     -2.980836    2.725089    1.944745
H     -5.407363   -0.104014   -0.107349
H     -1.027791    1.579070    1.034644
H      1.617039   -1.571339    1.220226
H      1.458412   -1.284703   -1.173423
H     -5.060602   -2.844388   -1.832316
