43

C     -0.254493   -0.510372    3.173994
C      0.427640    0.451666    2.224486
C      5.082423    1.247469   -1.382821
C      4.617060    1.607748   -0.141072
C      4.728379    0.042791   -1.895695
C     -5.425273    0.777169   -2.226677
C     -4.440104    1.627372   -2.638929
C      3.806305    0.746103    0.554309
C      3.917120   -0.811435   -1.192225
C     -5.125101   -0.133484   -1.254992
C     -3.194931    1.560241   -2.088868
C      2.545592   -1.426549    0.803357
C      1.110440   -1.279075    0.513118
C      3.423690   -0.483802    0.070616
C      0.438368   -0.004276    0.815735
C     -3.835874   -0.212768   -0.676371
C     -2.842624    0.631467   -1.079715
C     -3.631753   -1.215988    0.340302
C     -1.514415    0.628891   -0.553641
O     -4.648904   -1.960747    0.644531
O     -2.523597   -1.533160    1.063798
O     -0.701674    1.499086   -1.057088
O     -0.918804   -0.126559    0.396637
H     -0.119316   -1.544426    2.805608
H     -1.348548   -0.331014    3.238214
H      0.128086   -0.404680    4.211818
H      1.369048    0.729348    2.683333
H     -0.210730    1.385701    2.253052
H      5.719410    1.961254   -1.892874
H      4.870458    2.553457    0.308300
H      5.080336   -0.259292   -2.863862
H     -6.441209    0.808523   -2.653438
H     -4.645811    2.353058   -3.400203
H      3.423777    1.007389    1.549308
H      3.636576   -1.771732   -1.604260
H     -5.900061   -0.826669   -0.907818
H     -2.386457    2.237927   -2.408384
H      2.860824   -2.453668    0.470893
H      2.825303   -1.358098    1.869450
H      0.986376   -1.453454   -0.600072
H      0.509985   -2.114226    0.958738
H      0.896797    0.825742    0.208736
H     -2.294312   -2.466926    1.360675
