42

C     -1.386456    1.426089    2.131346
C     -3.651738   -0.134301    0.183180
C     -2.310394   -0.779572   -1.708720
C     -2.001200    1.419788   -0.771480
C     -1.502381   -2.084056    0.752443
C     -1.556303   -0.046230    1.978228
C      5.044328    0.174860   -1.581453
C      4.232640   -0.596427   -2.377648
C      4.506049    0.641275   -0.419914
C      2.938792   -0.879479   -2.014521
C      3.172027    0.351926   -0.038624
C      2.352287   -0.412710   -0.823681
C      2.735214    0.838610    1.243504
C      0.961355   -0.714118   -0.590130
C     -2.226014   -0.004061   -0.376828
C     -1.240038   -0.585009    0.560974
O      1.654981    0.589756    1.753518
O      3.594599    1.673596    2.003466
O      0.432204   -1.531424   -1.436293
O      0.089456   -0.299001    0.352418
H     -0.721866    1.906838    1.389799
H     -2.341292    1.997632    2.178506
H     -0.894574    1.669252    3.137217
H     -3.825666    0.501503    1.057723
H     -4.372601    0.271884   -0.596393
H     -3.940659   -1.189658    0.283217
H     -3.371948   -0.588785   -2.071950
H     -1.691680   -0.332464   -2.492716
H     -2.260233   -1.855536   -1.573540
H     -2.491998    2.162002   -0.143389
H     -0.910198    1.646248   -0.930748
H     -2.460667    1.546838   -1.811603
H     -1.215894   -2.698264   -0.088969
H     -2.502685   -2.242546    1.178958
H     -0.795149   -2.369016    1.589389
H     -0.833870   -0.544058    2.694328
H     -2.545313   -0.373729    2.328311
H      6.062436    0.382116   -1.896719
H      4.628699   -0.987008   -3.311889
H      5.131609    1.248964    0.216823
H      2.312939   -1.497082   -2.668403
H      3.201202    2.295354    2.712261
