39

C     -1.230241   -2.655590    0.861282
C     -3.855613    0.518737   -0.562642
C     -2.251126    1.614458    0.926754
C     -1.924351    1.675374   -1.482189
C     -2.042690   -1.386319    0.819634
C      5.051902   -0.150170   -0.881696
C      4.395646   -0.768339   -1.911985
C      4.312590    0.339150    0.155395
C      3.038175   -0.871320   -1.863974
C      2.903858    0.236024    0.212181
C      2.238998   -0.380045   -0.812742
C     -1.567199   -0.465942   -0.305717
C      2.192886    0.770505    1.329252
C      0.818854   -0.577144   -0.929168
C     -2.391976    0.803765   -0.335169
O      0.995529    0.759375    1.522108
O      2.988808    1.387233    2.329923
O      0.409701   -1.188260   -1.989149
O     -0.211156   -0.236559   -0.118301
H     -0.904783   -2.848829   -0.202104
H     -1.820394   -3.499674    1.264356
H     -0.274797   -2.511551    1.425188
H     -4.024601   -0.141722   -1.439197
H     -4.381994    0.186954    0.343925
H     -4.323237    1.502905   -0.846100
H     -2.456342    1.065523    1.844453
H     -3.040674    2.418298    0.861533
H     -1.287198    2.176401    0.936728
H     -2.768292    2.261037   -1.924703
H     -1.558562    0.995908   -2.277327
H     -1.171785    2.418457   -1.163404
H     -3.107314   -1.648947    0.700519
H     -1.943100   -0.907447    1.812398
H      6.127194   -0.083378   -0.947157
H      4.941448   -1.176458   -2.764484
H      4.848433    0.820805    0.953842
H      2.555958   -1.366904   -2.697684
H     -1.808335   -1.001064   -1.254125
H      2.525782    1.914754    3.074350
