35

C      3.884559   -0.764113    0.251692
C      3.899994    1.354146   -0.920371
C      1.145007   -1.828892    0.738502
C     -3.153723    0.891464   -1.215530
C     -3.548555   -1.194044   -0.009439
C     -3.842662    0.941382    1.119106
C      1.707271    0.345446   -0.436089
C      3.109553    0.481960    0.039719
C      0.785326   -0.401265    0.454483
C     -1.601739    0.183191    0.588259
C     -2.987389    0.213137    0.124105
O     -1.302126    0.739238    1.673881
O     -0.553358   -0.429298   -0.093678
H      3.883169   -1.358960   -0.691717
H      4.975454   -0.434219    0.334922
H      3.695487   -1.326828    1.162092
H      3.747913    2.445460   -0.683061
H      4.991379    1.187239   -0.807711
H      3.626637    1.171631   -1.963111
H      1.833580   -2.283511    0.012132
H      0.189890   -2.432873    0.780395
H      1.509198   -1.886011    1.803210
H     -4.237896    0.813914   -1.476203
H     -2.608870    0.351198   -2.028695
H     -2.907249    1.958526   -1.168721
H     -3.385868   -1.602576   -1.012295
H     -4.644453   -1.211003    0.253300
H     -3.034776   -1.880000    0.710801
H     -3.708064    2.035422    0.922598
H     -3.421330    0.734058    2.133621
H     -4.902718    0.634312    1.034704
H      1.298521    1.401890   -0.497404
H      1.686048   -0.058643   -1.486869
H      3.113131    1.048230    1.005278
H      0.758660    0.160395    1.428369
