36

C     -4.100536    0.529475   -2.017107
C     -4.333925   -0.749960    0.027851
C     -1.861575   -0.670011    1.764924
C      4.740542    1.851419    0.756689
C      3.514287    2.360578    1.118834
C      4.858248    0.612015    0.195435
C      2.406732    1.593640    0.903394
C     -2.108179    0.345490   -0.542925
C     -3.349459   -0.330103   -0.993850
C     -1.246710   -0.369169    0.444175
C      3.706357   -0.160535   -0.017543
C      2.480815    0.311586    0.328159
C      3.919505   -1.440992   -0.608275
C      1.221334   -0.382953    0.162274
O      3.016857   -2.252122   -0.867714
O      5.240919   -1.864031   -0.941754
O      1.030053   -1.516238   -0.316697
O      0.028640    0.239552    0.570401
H     -3.871268    1.585049   -1.779676
H     -3.780365    0.272176   -3.049457
H     -5.188825    0.318596   -1.967509
H     -4.264737   -1.863050    0.222955
H     -5.362074   -0.655412   -0.425871
H     -4.354581   -0.168305    0.946609
H     -1.081947   -0.886945    2.549477
H     -2.402421    0.229751    2.146211
H     -2.569786   -1.510760    1.762082
H      5.647154    2.446462    0.918558
H      3.460152    3.336717    1.556539
H      5.839166    0.262522   -0.068697
H      1.431857    1.991358    1.188180
H     -2.437533    1.359563   -0.129968
H     -1.536315    0.643441   -1.458712
H     -3.033527   -1.250503   -1.554929
H     -1.042436   -1.385998   -0.027424
H      5.383582   -2.832298   -1.230398
