39

C     -1.306297    0.690311   -2.236699
C     -3.311443    1.488093   -0.142891
C     -1.847805    0.651205    1.703453
C     -3.978485   -0.395852    1.171054
C      5.250279   -0.941157    0.832503
C      4.830756   -1.922362   -0.007039
C      4.388162    0.070052    1.167089
C      3.550145   -1.877071   -0.500571
C     -2.155800   -0.750523   -0.341368
C     -1.031527   -0.402464   -1.233242
C      3.078252    0.109034    0.656670
C      2.630924   -0.867782   -0.190063
C      2.269430    1.214349    1.041270
C      1.324973   -0.986676   -0.770653
C     -2.731611    0.275563    0.547779
O      1.113998    1.445281    0.665426
O      2.781903    2.172013    1.936375
O      1.084079   -1.971502   -1.583315
O      0.207124   -0.204074   -0.617512
H     -2.357776    0.856746   -2.468332
H     -0.798525    1.645911   -1.958482
H     -0.828510    0.439635   -3.233828
H     -3.906693    2.042841    0.647787
H     -4.086772    1.150058   -0.858197
H     -2.594742    2.211387   -0.507673
H     -1.444236    1.681005    1.617712
H     -1.041395   -0.112136    1.760535
H     -2.421365    0.605667    2.637901
H     -3.720985   -1.358727    1.622482
H     -4.697353   -0.487093    0.330269
H     -4.421340    0.329227    1.888026
H      6.254778   -0.967439    1.226388
H      5.525697   -2.734703   -0.275303
H      4.717743    0.862731    1.841513
H      3.265791   -2.680212   -1.163562
H     -1.860191   -1.644238    0.246607
H     -2.990974   -1.123371   -0.997680
H     -0.896439   -1.330306   -1.883180
H      2.156234    2.816579    2.410841
