36

C     -2.078943    1.562164    0.370742
C     -4.178944    0.703121    1.262905
C     -1.920361   -1.079131   -2.067889
C      4.076356    1.860409    0.493133
C      2.797793    2.252171    0.145963
C      4.312410    0.531693    0.658721
C      1.818723    1.314796   -0.019959
C     -2.579759   -0.882277    0.339460
C     -3.144936    0.509320    0.156519
C     -1.459997   -1.177854   -0.630007
C      3.296373   -0.435747    0.486133
C      2.041448   -0.063952    0.146353
C      3.658724   -1.817498    0.689125
C      0.906728   -0.924262   -0.065722
O      2.913671   -2.779413    0.587334
O      5.010904   -2.112854    1.043110
O      0.905912   -2.156749    0.031579
O     -0.346290   -0.348761   -0.420623
H     -1.533703    1.682462   -0.579863
H     -2.634112    2.499499    0.664135
H     -1.447092    1.218662    1.210722
H     -4.798982    1.602581    1.077470
H     -4.792315   -0.196238    1.408935
H     -3.582291    0.873188    2.200229
H     -1.676441   -0.046727   -2.427754
H     -1.326004   -1.770183   -2.705373
H     -2.978055   -1.340878   -2.193678
H      4.875493    2.581496    0.632095
H      2.632010    3.310992    0.019536
H      5.292681    0.201773    0.927296
H      0.849002    1.666555   -0.287673
H     -3.358869   -1.661504    0.251824
H     -2.160340   -0.938470    1.361268
H     -3.569909    0.667933   -0.845017
H     -1.152306   -2.226289   -0.471107
H      5.331418   -3.080027    0.910991
