44

C      4.467098   -3.515834    0.718207
C     -4.491523   -2.786421   -1.326144
C     -1.080539    5.430903    0.520562
C      5.004410   -2.437225   -0.176601
C     -4.665744   -1.308077   -1.463199
C     -0.885269    3.919055    0.346058
C      3.845015   -1.797295   -0.908138
C     -3.362257   -0.576083   -1.709741
C     -0.247567    3.433178    1.630497
C     -0.451173   -0.680705    0.741781
C      0.916980   -0.044737    0.711400
C      2.919185   -1.222651    0.082467
C     -1.243672   -0.332197   -0.477999
C      0.769586    1.422849    0.648929
O      3.170326   -1.315232    1.292397
O     -0.798506    0.397142   -1.389552
O      1.349868    2.088201   -0.226696
O     -2.519397   -0.835663   -0.604221
O     -0.024246    2.056074    1.578108
O      1.744002   -0.562649   -0.281529
H      4.527081   -3.150309    1.768894
H      5.074500   -4.442042    0.578853
H      3.402438   -3.681273    0.494563
H     -5.118403   -3.373256   -2.018562
H     -3.430649   -3.077176   -1.462506
H     -4.825877   -3.071206   -0.291026
H     -0.214881    5.822259    1.071249
H     -1.192256    5.875821   -0.490865
H     -1.983359    5.588888    1.130851
H      5.767311   -2.819780   -0.890824
H      5.549900   -1.676167    0.440167
H     -5.184246   -0.861863   -0.573497
H     -5.379242   -1.139569   -2.312932
H     -0.270524    3.740277   -0.542023
H     -1.880674    3.414608    0.261262
H      4.281383   -0.947917   -1.486936
H      3.373560   -2.479461   -1.614609
H     -2.934928   -0.926277   -2.661061
H     -3.609473    0.500860   -1.803840
H      0.655592    4.025732    1.882148
H     -1.018859    3.606485    2.436587
H     -0.997624   -0.240389    1.602862
H     -0.365384   -1.765999    0.839140
H      1.358034   -0.254877    1.725027
