38

C      5.740506   -0.317172    0.218772
C     -6.160996    1.494183    0.314715
C      0.847070   -2.917177    1.925001
C      4.214744   -0.185086    0.212143
C     -4.693535    1.253785    0.428154
C      3.861308    0.752603   -0.891444
C     -3.972094    1.384691   -0.892951
C      0.171024    0.192687   -1.560288
C      0.472081   -1.583534    1.404786
C     -0.517392   -0.179286   -0.268494
C      1.634989   -0.024468   -1.361450
C     -1.990337   -0.001040   -0.359070
O      0.738578   -0.542899    2.054707
O      2.120573   -1.178413   -1.459411
O     -2.713494   -0.964570   -0.024204
O      2.506713    1.009010   -1.066426
O     -2.586182    1.159240   -0.787900
O     -0.180580   -1.446515    0.191911
H      6.112822   -0.719627    1.168667
H      6.231281    0.676942    0.067957
H      6.068160   -0.950341   -0.639603
H     -6.428100    2.564562    0.456970
H     -6.534433    1.133996   -0.674655
H     -6.678105    0.895659    1.110317
H      1.965816   -2.980437    1.872849
H      0.359205   -3.687782    1.308206
H      0.472231   -2.981905    2.965302
H      3.920555    0.244248    1.208269
H      3.805815   -1.190001    0.151615
H     -4.251500    2.061147    1.087256
H     -4.427992    0.308529    0.896719
H      4.375813    0.424283   -1.826329
H      4.349390    1.739327   -0.640550
H     -4.095156    2.412891   -1.323844
H     -4.406763    0.656193   -1.638166
H     -0.190399   -0.397268   -2.416898
H      0.037420    1.286014   -1.688632
H     -0.179037    0.597530    0.475998
