38

C     -5.385396    0.624531   -0.343755
C      5.032842    0.317650    0.874099
C      0.847927   -2.603201   -2.307231
C     -4.864980   -0.805522   -0.286631
C      4.553568    1.725177    0.739934
C     -4.042098   -0.948569    0.966186
C      3.727685    1.928226   -0.522257
C     -0.825872    0.926517    0.178706
C      0.695491   -1.941970   -1.010607
C      0.479485    0.147361    0.268616
C     -1.920363   -0.077627    0.041405
C      1.612271    1.090112    0.405670
O      0.626013   -2.594223    0.063390
O     -1.936317   -0.924414   -0.874372
O      1.682641    1.891525    1.381034
O     -2.951335   -0.067926    0.967838
O      2.606111    1.102778   -0.528509
O      0.623320   -0.574500   -0.923775
H     -6.443052    0.651466   -0.001904
H     -4.806370    1.264734    0.385582
H     -5.318072    1.050156   -1.354008
H      4.194747   -0.406149    1.036671
H      5.654443    0.283974    1.812378
H      5.639328    0.022592   -0.014816
H     -0.095188   -3.024424   -2.708859
H      1.240940   -1.901532   -3.074764
H      1.631597   -3.388103   -2.204770
H     -4.252242   -0.977349   -1.188245
H     -5.715729   -1.538627   -0.206161
H      3.996266    1.977593    1.660441
H      5.446758    2.388339    0.712172
H     -4.656609   -0.748265    1.860732
H     -3.656780   -1.988995    0.980814
H      3.510942    2.994185   -0.679464
H      4.399054    1.567718   -1.355953
H     -0.996717    1.595935    1.013603
H     -0.765281    1.502983   -0.778217
H      0.430972   -0.542155    1.153253
