63

C      8.347079    2.552144    0.431445
C     -9.761778    0.405996   -0.289630
C      7.379837    1.328788    0.408593
C     -8.849882    1.588918   -0.425267
C      7.600204    0.545732   -0.831178
C     -7.416957    1.010216   -0.702218
C      6.700452   -0.575518   -1.076752
C     -7.089002    0.181294    0.455912
C      6.631553   -1.670415   -0.098047
C     -5.850608   -0.586162    0.491077
C      6.064013   -1.432632    1.244437
C     -4.569638    0.158589    0.364140
C      4.629470   -0.944935    1.100716
C     -4.311737    0.708932   -0.974116
C      3.750272   -1.970027    0.386215
C     -3.074254    1.561250   -1.112366
C      0.014168   -1.423252   -0.316854
C      0.091713   -0.050311    0.355721
C      1.375186   -2.017245   -0.248567
C     -1.251263    0.611229    0.324202
O      0.415642   -0.284377    1.685178
O      1.599438   -3.169395   -0.738910
O     -1.822761    0.830289    1.418487
O      2.458397   -1.383590    0.332174
O     -1.877574    0.982870   -0.809981
H      9.348112    2.194047    0.182027
H      8.309542    2.921632    1.462167
H      7.975711    3.332143   -0.251578
H     -9.837256    0.128589    0.781564
H     -9.333644   -0.436718   -0.853353
H    -10.753002    0.725147   -0.695779
H      6.355363    1.609040    0.539062
H      7.837150    0.719960    1.253178
H     -9.120532    2.213033   -1.303517
H     -8.752542    2.152809    0.508606
H      8.653524    0.119382   -0.765555
H      7.578203    1.226077   -1.747843
H     -7.399346    0.506417   -1.648531
H     -6.844623    1.971234   -0.770227
H      6.988602   -0.995504   -2.119317
H      5.638186   -0.206116   -1.324399
H     -7.157361    0.867503    1.391701
H     -7.938258   -0.573945    0.621502
H      7.664564   -2.126842    0.088222
H      6.115552   -2.533910   -0.620359
H     -5.902822   -1.409183   -0.308378
H     -5.787642   -1.244488    1.437623
H      5.931135   -2.434376    1.795173
H      6.577225   -0.772586    1.924230
H     -3.761312   -0.592286    0.667732
H     -4.493260    0.967120    1.148197
H      4.630229   -0.016090    0.496476
H      4.163660   -0.731150    2.067537
H     -5.137069    1.084877   -1.573066
H     -4.057951   -0.271682   -1.604312
H      4.121611   -2.205127   -0.633963
H      3.789083   -2.891431    0.974047
H     -3.030054    1.819292   -2.226443
H     -3.229605    2.547127   -0.570620
H     -0.347931   -1.334702   -1.360052
H     -0.646961   -2.042169    0.318429
H      0.875521    0.574402   -0.084792
H     -0.203774   -0.999700    2.006690
