25

C     -1.515162   -0.627943   -1.525264
C     -3.075760   -0.744342    0.452469
C      1.556801   -0.459759    0.054108
C      1.292779    0.987762    0.271767
C      2.856706   -0.955837    0.486571
C      2.244070    1.862187   -0.439940
C     -1.154843    0.786161    0.459165
N     -1.923916   -0.205098   -0.209555
O      3.726287   -0.252264    1.042277
O      3.187124   -2.305972    0.281554
O      3.406109    2.081768   -0.029149
O      1.896684    2.510268   -1.639427
O     -0.029623    1.352267   -0.118349
S     -1.562238    1.314792    1.959121
Na     0.000000    0.000000    0.000000
Na     0.000000    0.000000    0.000000
H     -0.838118   -1.510449   -1.390496
H     -2.433111   -0.947285   -2.062242
H     -1.003894    0.219040   -2.019660
H     -2.786774   -0.991788    1.500205
H     -3.864500    0.035757    0.528183
H     -3.482635   -1.644753   -0.019295
H      0.739680   -1.018995    0.580827
H      1.405274   -0.736144   -1.027781
H      1.359063    1.250628    1.350284
