25

C     -3.309307   -1.418423    0.497831
C     -2.531515    0.169130   -1.229533
C      2.002282    0.150870    1.319753
C      1.015015    1.044272    0.614377
C      2.663061   -0.770430    0.364310
C      1.729678    1.860348   -0.409521
C     -0.965281   -0.486468    0.607436
N     -2.255106   -0.584121   -0.025490
O      3.595011   -0.337375   -0.351922
O      2.287146   -2.091762    0.235259
O      1.353789    1.822129   -1.595515
O      2.792576    2.640836   -0.021200
O     -0.021765    0.320350    0.055980
S     -0.741762   -1.355718    1.938979
H     -4.147553   -0.763894    0.811799
H     -3.617834   -2.137116   -0.267173
H     -2.919858   -1.967213    1.377715
H     -2.037600   -0.358674   -2.062533
H     -3.608263    0.262085   -1.406156
H     -2.033558    1.166737   -1.130269
H      2.780054    0.815062    1.781533
H      1.524801   -0.393121    2.125122
H      0.548407    1.739621    1.373004
H      2.630606   -2.617633   -0.569701
H      3.266975    3.290511   -0.645770
