36

C     -2.456574   -0.904374   -0.939838
C      5.374281    0.880768   -0.833051
C      2.687913   -2.856890    2.137769
C     -5.327186    1.279750    0.064090
C     -4.672820    2.250774    0.808629
C     -4.579707    0.261423   -0.492985
C     -3.332992    2.212966    0.993070
C      1.654578    0.033479   -1.036777
C     -3.221762    0.189181   -0.329072
C     -2.606438    1.170239    0.416810
C      0.971603   -0.011824    0.318480
C      3.119342   -0.060786   -0.942197
C     -1.177069    1.150166    0.640092
C      1.250363   -1.255725    1.059089
O      3.663466   -1.190955   -0.873361
O     -0.629433    2.076201    1.266554
O      0.284362   -2.000562    1.374993
O      3.957477    1.055086   -0.925213
O      2.545797   -1.641699    1.427227
O     -0.435278    0.101137    0.155026
H     -2.046882   -1.608960   -0.174235
H     -1.687970   -0.581449   -1.644224
H     -3.161525   -1.551947   -1.547979
H      5.717248    0.940381    0.219369
H      5.812916    1.750794   -1.385269
H      5.712291   -0.041524   -1.341668
H      2.735720   -3.660117    1.345160
H      3.621253   -2.899901    2.734339
H      1.785109   -3.007922    2.748100
H     -6.387298    1.310946   -0.080665
H     -5.227739    3.058992    1.256354
H     -5.086479   -0.496849   -1.073117
H     -2.820379    2.959364    1.566705
H      1.267295   -0.804508   -1.649850
H      1.404932    1.002258   -1.521405
H      1.291585    0.892090    0.883736
