36

C      4.999982    1.764774    1.017273
C     -1.702095    3.208441   -1.058811
C     -3.538312   -3.954415    1.642709
C      3.260749   -0.543818   -1.402953
C      4.222542    0.216177   -0.756501
C      1.982691   -0.521333   -0.879379
C      2.624741    0.947814    0.840242
C     -3.017536   -0.382416   -0.637905
C      3.931250    0.966274    0.360521
C      1.644352    0.214327    0.236467
C     -2.011579   -0.704772    0.416838
C     -2.848830    1.030806   -1.119157
C      0.271439    0.184087    0.726045
C     -2.223537   -2.103392    0.851668
O     -3.590795    1.519540   -2.009302
O     -0.114980    0.813191    1.717758
O     -1.236943   -2.874406    0.861404
O     -1.867242    1.871055   -0.608367
O     -3.457519   -2.597894    1.246973
O     -0.690673   -0.559863    0.101179
H      5.639575    1.114498    1.673457
H      4.577152    2.556917    1.662783
H      5.704973    2.197875    0.268576
H     -0.911191    3.282496   -1.844518
H     -2.646055    3.570379   -1.506880
H     -1.426858    3.809608   -0.155442
H     -2.529841   -4.394181    1.761241
H     -4.058030   -4.074267    2.614068
H     -4.056208   -4.488053    0.812734
H      3.532036   -1.116455   -2.274562
H      5.253481    0.234262   -1.130335
H      1.211322   -1.112454   -1.373197
H      2.370481    1.524897    1.711247
H     -3.046594   -1.103166   -1.469267
H     -4.030682   -0.418042   -0.181039
H     -2.221267   -0.078490    1.333742
