29

C     -3.731359   -1.453411    0.873207
C      3.911157   -2.360976    0.183747
C      0.139342    4.353602   -0.658848
C     -2.477589   -2.155660    0.399332
C      1.472653    0.495239    0.094010
C      0.039286    0.599568   -0.352455
C     -1.597871   -1.199164   -0.350729
C      2.048034   -0.833206   -0.065695
C     -0.365952    2.014248   -0.119830
O     -1.555916   -1.171356   -1.619921
O      1.392934   -1.767374   -0.557472
O     -1.308381    2.386992    0.599372
O      3.347090   -1.071630    0.334783
O      0.384103    2.981449   -0.767957
O     -0.796853   -0.304179    0.341921
H     -4.510971   -1.356245    0.096358
H     -3.452488   -0.421830    1.233033
H     -4.172272   -1.978295    1.747510
H      4.734210   -2.299813   -0.570735
H      4.373699   -2.608324    1.179213
H      3.127099   -3.054435   -0.121433
H      1.009688    4.898505   -1.108568
H     -0.711415    4.581135   -1.351899
H     -0.019892    4.725358    0.348625
H     -1.959109   -2.645625    1.233752
H     -2.798432   -2.927811   -0.344427
H      2.051171    1.293978   -0.408201
H      1.460159    0.825238    1.179412
H     -0.032127    0.454020   -1.446105
