36

C      3.457267    1.859684    0.972087
C     -5.477204    1.162464    0.774699
C     -1.427048   -3.551397    1.042119
C      4.833770   -0.224044   -1.836039
C      3.709575   -0.864745   -2.311943
C      4.753995    0.667641   -0.762599
C      2.505394   -0.601208   -1.699604
C     -2.109527    0.739752   -0.936178
C      3.557288    0.929485   -0.154042
C      2.426092    0.292150   -0.624299
C     -1.249000    0.188224    0.165526
C     -3.506648    0.989510   -0.588304
C      1.163116    0.577531    0.028549
C     -1.704348   -1.120256    0.682821
O     -4.252281    1.362412   -1.554050
O      0.992234    1.352898    0.991802
O     -2.791099   -1.249514    1.291981
O     -4.103220    0.874222    0.632346
O     -0.965518   -2.298760    0.533200
O      0.027361   -0.055976   -0.441524
H      4.490687    2.246697    1.217855
H      3.142416    1.324916    1.897639
H      2.842981    2.758152    0.777689
H     -5.593952    1.904182    1.599249
H     -5.916210    1.628894   -0.126805
H     -6.014523    0.216273    0.980054
H     -1.087358   -4.339867    0.336897
H     -1.020119   -3.761832    2.047820
H     -2.538915   -3.567110    1.110811
H      5.769541   -0.434823   -2.319249
H      3.727277   -1.551865   -3.127735
H      5.660647    1.134847   -0.437596
H      1.566643   -1.074231   -2.023754
H     -2.116660   -0.055013   -1.740268
H     -1.607349    1.626888   -1.396733
H     -1.145302    0.913819    1.001116
