26

C      4.018541   -1.881014    0.592111
C     -3.215935   -1.911505   -0.206451
C      1.049520    0.147244   -0.728752
C     -1.775228    3.689920    0.289837
C     -0.120925    0.258288    0.231148
C      1.945347   -0.984934   -0.430161
C     -0.998453    2.457067    0.655211
C     -0.987883   -0.927387    0.228833
Br    -0.496167    4.861312   -0.603130
O      1.636909   -2.127471   -0.828554
O     -0.437297    2.406783    1.796617
O     -0.571318   -2.063053    0.584030
O      3.123325   -0.832308    0.278292
O     -2.305178   -0.855810   -0.163443
O     -0.864704    1.378831   -0.186492
H      4.987787   -1.362462    0.856456
H      4.186498   -2.558409   -0.282665
H      3.628850   -2.438356    1.451530
H     -3.545199   -2.154372   -1.242314
H     -4.142347   -1.617559    0.343621
H     -2.866775   -2.841113    0.251208
H      0.632865    0.105558   -1.773297
H      1.573242    1.141117   -0.685272
H     -2.080652    4.215165    1.232268
H     -2.626685    3.444449   -0.353163
H      0.251865    0.450018    1.259758
