32

C     -4.466572    0.356871    0.789093
C     -3.537230    1.517899   -1.137282
C      4.793140    1.732569    0.683752
C      2.343186   -3.449510   -0.509275
C      1.207118    0.899527   -0.311098
C     -3.434310    0.267192   -0.312983
C      0.322298   -0.253067    0.015656
C      2.522984    0.828214    0.325615
C     -2.069726    0.059901    0.231490
C      0.811218   -1.572772   -0.393947
O      2.873089   -0.065870    1.125606
O     -1.899206   -0.017021    1.476540
O      0.058998   -2.266598   -1.171186
O      3.519060    1.797250    0.070452
O      2.001293   -2.164489   -0.036475
O     -0.967793   -0.053151   -0.583650
H     -4.243329    1.132991    1.524981
H     -4.647653   -0.651069    1.248243
H     -5.430414    0.629220    0.296121
H     -4.600906    1.610645   -1.457347
H     -2.926599    1.504608   -2.051323
H     -3.341169    2.410983   -0.494364
H      5.587794    1.878045   -0.095325
H      4.947058    0.770208    1.217267
H      4.853825    2.570773    1.409642
H      1.643416   -3.725020   -1.337113
H      2.209575   -4.217005    0.289846
H      3.405670   -3.521157   -0.829787
H      1.323776    1.022604   -1.427541
H      0.645664    1.836425   -0.019546
H     -3.709317   -0.583649   -0.952520
H      0.205062   -0.285547    1.125730
