35

C      5.020162   -0.212564    0.012022
C      3.382135    1.153772   -1.148247
C     -4.467415    2.059762   -0.376612
C     -3.556232   -2.644869    1.123022
C      2.859959    0.221639    1.076788
C     -1.315985    0.145007   -1.266281
C      3.521926   -0.085136   -0.252799
C     -0.824728   -0.246007    0.113584
C     -2.770361    0.432623   -1.175340
C      1.405987    0.368811    0.981430
C     -1.516773   -1.442222    0.648466
O     -3.683338   -0.309356   -1.604409
O      0.829373    1.276188    1.676548
O     -0.819022   -2.378333    1.121962
O     -3.139794    1.625901   -0.558986
O     -2.918987   -1.478842    0.601930
O      0.570246   -0.401790    0.190240
H      5.433416   -1.041438   -0.587694
H      5.558732    0.744328   -0.213466
H      5.219443   -0.440179    1.077895
H      2.339391    1.385700   -1.395592
H      3.950810    0.939800   -2.090149
H      3.900486    1.979706   -0.631489
H     -5.177731    1.703089   -1.135870
H     -4.432131    3.173825   -0.329984
H     -4.757782    1.711027    0.659427
H     -2.943706   -3.515184    0.812222
H     -3.548104   -2.571388    2.222176
H     -4.602939   -2.675563    0.754521
H      3.309928    1.144008    1.446519
H      3.175961   -0.582054    1.785263
H     -1.168719   -0.727639   -1.937050
H     -0.789088    1.052608   -1.627292
H      3.120183   -0.969826   -0.760781
H     -1.165304    0.604597    0.788022
