32

C     -3.489534    1.105063   -0.613581
C     -4.273210   -0.938440    0.632871
C      4.811305   -2.504139   -0.422682
C      1.120415    3.590506   -0.068826
C      1.341642   -1.049123   -0.438355
C     -3.232273   -0.330979   -0.279998
C      0.562530   -0.089250    0.409065
C      2.697201   -1.355527   -0.007360
C     -1.896098   -0.424659    0.399823
C      1.201178    1.213656    0.464618
O      3.183201   -0.915653    1.036431
O     -1.784856   -0.888529    1.569984
O      2.303270    1.450628    0.976910
O      3.491051   -2.196201   -0.825408
O      0.536028    2.310196   -0.101398
O     -0.733234   -0.009284   -0.222438
H     -3.141724    1.351587   -1.636892
H     -4.573587    1.377318   -0.602992
H     -2.928527    1.795450    0.075869
H     -5.265793   -0.432269    0.497554
H     -4.460358   -2.016450    0.405427
H     -3.964718   -0.871187    1.691840
H      5.294133   -1.668617    0.121401
H      5.412851   -2.814126   -1.305053
H      4.738001   -3.373310    0.260539
H      1.268701    3.930630    0.982439
H      2.086648    3.537804   -0.607702
H      0.440262    4.307269   -0.591703
H      1.352887   -0.628154   -1.492750
H      0.715807   -1.992312   -0.510480
H     -3.240004   -0.946777   -1.224363
H      0.426805   -0.525123    1.427210
