35

C      4.508800   -1.335915   -0.225010
C      2.147066   -2.038938   -0.388736
C     -2.861610   -3.308579   -0.646244
C     -2.998860    4.525857    0.000561
C      2.650141    0.291511    0.022407
C     -2.117754    0.384601   -0.372272
C      3.124997   -1.118900    0.355089
C     -1.076816    1.227403    0.336629
C     -2.001495   -1.055433   -0.155309
C      1.280313    0.512322    0.606529
C     -1.422755    2.628005   -0.012951
O     -1.118298   -1.516626    0.590440
O      1.035028    0.262153    1.819462
O     -0.583394    3.311462   -0.632723
O     -2.873612   -1.919236   -0.777641
O     -2.634730    3.204245    0.317778
O      0.229763    0.994779   -0.150224
H      4.607251   -0.715410   -1.144785
H      4.684228   -2.399490   -0.474015
H      5.305038   -1.060533    0.503686
H      2.632425   -2.466230   -1.264668
H      1.814508   -2.850868    0.276576
H      1.264444   -1.478569   -0.756256
H     -1.949023   -3.776193   -1.035747
H     -3.091452   -3.651298    0.387181
H     -3.718289   -3.702050   -1.268723
H     -2.168233    5.228936   -0.003300
H     -3.825150    4.820355    0.700631
H     -3.451517    4.571949   -1.032483
H      3.360938    0.966206    0.535684
H      2.604489    0.426273   -1.060791
H     -2.174485    0.636083   -1.451586
H     -3.104887    0.706514    0.063136
H      3.078452   -1.301513    1.439644
H     -1.155519    0.997129    1.419260
