30

C     -3.291797   -0.929770   -0.423530
C      3.738583    2.600529   -0.722962
C     -0.107346   -3.416848   -0.669206
C     -2.769560    0.473505   -0.559044
C      1.372146    0.645906    1.494432
C      0.193305    0.125204    0.740640
C      2.518271    0.977921    0.621692
C      0.456013   -1.115312   -0.025826
O      3.411502    0.157425    0.294404
O      1.450679   -1.162793   -0.784557
O     -3.307422    1.011084    2.014547
O     -1.751484    2.462877    0.855295
O      2.658506    2.279541    0.102466
O     -0.358227   -2.237779    0.060025
O     -0.953563    0.029255    1.512695
S     -2.170895    1.055133    1.034459
H     -2.761639   -1.581812   -1.125994
H     -3.087857   -1.294198    0.617428
H     -4.389890   -0.912275   -0.584829
H      4.612135    2.917436   -0.119324
H      4.041689    1.747177   -1.369726
H      3.484731    3.430404   -1.416757
H      0.618701   -3.256647   -1.480552
H      0.249226   -4.232104    0.018297
H     -1.048989   -3.784072   -1.119185
H     -1.970820    0.490169   -1.307924
H     -3.568782    1.155936   -0.938986
H      1.713629   -0.129183    2.208418
H      1.063130    1.582938    1.993825
H     -0.043972    0.910353   -0.040554
