53

C     -2.163959    3.718554    0.386402
C     -4.425903    4.189098   -0.391386
C      5.818591    1.425578    0.168540
C      6.883205   -0.782883    0.594742
C     -2.773078   -4.865490    1.153678
C     -3.140006   -3.518361   -0.886154
C     -3.030353    2.648958   -1.650420
C      0.977121    0.771576    0.076469
C      4.488434   -0.620781    0.107004
C     -2.466726   -2.438026    1.256699
C     -3.370698    3.105668   -0.269642
C      5.657652    0.045533    0.806093
C     -2.307785   -3.637356    0.368025
C     -0.318397    0.229199   -0.389385
C      2.084548   -0.146524   -0.205168
C     -1.938997    1.623325   -1.651540
C     -0.763477   -1.022220    0.234739
O      2.011240   -1.197353   -0.862724
O     -1.509622    1.112048   -2.711306
O      0.016953   -1.979020    0.414357
O      3.350781    0.179988    0.310094
O     -2.077431   -1.221274    0.664147
O     -1.351490    1.190411   -0.479819
H     -1.293961    3.715541   -0.323057
H     -1.875380    3.186653    1.322249
H     -2.311676    4.779853    0.676489
H     -3.957269    5.205552   -0.480486
H     -5.012504    4.067343   -1.343891
H     -5.152628    4.174232    0.438791
H      5.998510    1.215519   -0.922483
H      6.622172    2.007341    0.630698
H      4.827228    1.922250    0.205411
H      6.886258   -1.576374    1.390978
H      7.821126   -0.164479    0.699397
H      6.824035   -1.267651   -0.400289
H     -3.509772   -4.526049    1.902696
H     -3.263087   -5.557358    0.415614
H     -1.939159   -5.349314    1.686463
H     -3.599240   -4.486560   -1.088816
H     -2.519826   -3.227729   -1.765634
H     -3.930019   -2.754985   -0.673096
H     -3.876069    2.275751   -2.226342
H     -2.611624    3.533121   -2.194204
H      1.013764    0.966244    1.176118
H      1.130003    1.771119   -0.415313
H      4.672259   -0.668416   -0.984565
H      4.290739   -1.619770    0.555222
H     -1.733294   -2.597384    2.104502
H     -3.445159   -2.386383    1.747184
H     -3.781103    2.283730    0.364142
H      5.487678    0.177621    1.873237
H     -1.276519   -3.857709    0.066223
H     -0.136084   -0.052355   -1.480681
