26

C     -3.188916   -2.667693   -1.119220
C      0.050896    4.004011    1.754758
C     -1.022067    0.122553    0.254945
C      3.141456   -1.904561   -0.632633
C      0.347154    0.642446   -0.063895
C     -1.459895   -1.009192   -0.564840
C      2.138879   -0.835061   -0.865408
C      0.603375    1.774970    0.864822
Br     3.100128   -2.513518    1.195039
O     -0.744104   -1.495230   -1.454649
O      2.069918   -0.355760   -2.024727
O      1.567639    1.678689    1.660974
O     -2.703782   -1.568920   -0.359053
O     -0.156670    2.917574    0.897828
O      1.298533   -0.369433    0.153430
H     -2.875045   -3.601834   -0.579792
H     -2.779245   -2.707989   -2.128958
H     -4.298889   -2.680718   -1.107043
H     -0.694555    4.796632    1.478895
H      1.077535    4.414009    1.699794
H     -0.140990    3.747607    2.816330
H     -1.151168   -0.076464    1.342619
H     -1.738331    0.970267    0.041110
H      3.020468   -2.765193   -1.316359
H      4.156682   -1.485140   -0.819765
H      0.380994    0.967949   -1.124205
