42

C      5.903671   -0.149008   -1.311731
C      1.654004    3.852282   -0.796682
C     -6.940803   -1.256680    0.887782
C      5.310942   -0.862262   -0.128138
C      0.757759    3.384188    0.326538
C     -4.732466   -0.601198   -0.119885
C     -4.732112   -1.686437    1.984240
C     -3.353023   -0.534565   -0.084266
C     -3.349248   -1.618457    2.017732
C      1.606522   -1.108084   -1.034419
C     -5.454457   -1.179833    0.915557
C     -2.646770   -1.042031    0.983817
C      0.981928   -0.377033    0.114817
C      3.066170   -1.180464   -1.017615
C     -1.193930   -0.982604    1.040424
C      1.386144    1.041977    0.227455
O      3.639130   -1.717479   -2.030904
O     -0.544819   -1.447140    2.024056
O      2.567971    1.451630    0.331070
O      3.913465   -0.738891   -0.036372
O      0.411304    2.033091    0.222119
O     -0.434420   -0.417416    0.027316
H      5.748750   -0.739253   -2.236200
H      5.515814    0.873318   -1.454548
H      7.020415   -0.140721   -1.137511
H      1.506421    4.924716   -1.029431
H      1.541376    3.271867   -1.713676
H      2.719238    3.727140   -0.458619
H     -7.315424   -1.596630   -0.096564
H     -7.325095   -0.228354    1.148591
H     -7.266761   -1.899852    1.726032
H      5.803202   -0.467187    0.778608
H      5.619953   -1.943781   -0.232370
H      1.241152    3.583161    1.328254
H     -0.175301    3.982816    0.292876
H     -5.259322   -0.195018   -0.971017
H     -5.303395   -2.133989    2.782127
H     -2.794134   -0.084870   -0.889133
H     -2.841597   -2.027032    2.871045
H      1.231697   -2.169214   -0.955860
H      1.208997   -0.742761   -1.998134
H      1.307052   -0.857940    1.085624
