42

C     -5.175674   -3.411337   -0.478616
C     -2.776477    3.504441   -1.604107
C      4.278916   -0.500773    2.473521
C     -4.617111   -2.186000    0.251261
C     -2.786789    3.327091   -0.118307
C      5.942468   -0.411313   -0.844261
C      4.885170   -0.176455   -1.698216
C      5.740052   -0.514978    0.500608
C      3.630710   -0.050255   -1.163640
C     -1.135708   -0.828544   -0.203088
C      4.454886   -0.382588    1.016322
C      3.374799   -0.147372    0.191531
C     -0.391145    0.378510    0.293980
C     -2.510610   -0.975242    0.286745
C      2.018261   -0.007782    0.731412
C     -0.965185    1.663518   -0.062468
O     -2.998714   -0.195711    1.123453
O      1.766220   -0.092459    1.949390
O     -0.234976    2.492388   -0.705080
O     -3.291787   -2.027917   -0.207533
O     -2.238583    2.057248    0.240312
O      0.954729    0.227797   -0.120974
H     -6.041094   -3.842827    0.036275
H     -4.327232   -4.143850   -0.518413
H     -5.353080   -3.091827   -1.511117
H     -1.777504    3.916831   -1.879235
H     -3.604792    4.228227   -1.851354
H     -2.978203    2.534998   -2.103478
H      3.826759    0.412357    2.926203
H      3.617403   -1.387844    2.689610
H      5.238710   -0.730114    2.973558
H     -5.251153   -1.294072    0.047290
H     -4.546062   -2.412869    1.340619
H     -3.830886    3.330436    0.257199
H     -2.257619    4.134502    0.423094
H      6.952770   -0.514465   -1.257794
H      5.116908   -0.105532   -2.752470
H      6.586751   -0.700096    1.152765
H      2.807970    0.131828   -1.825664
H     -0.537745   -1.760597   -0.093841
H     -1.222158   -0.708438   -1.327963
H     -0.343194    0.261084    1.422469
