42

C      5.999863   -0.866162    0.997837
C      0.550136    3.861970   -2.604146
C     -6.429730   -2.427433    0.621686
C      5.466644    0.131782    2.003050
C      0.058336    3.728156   -1.200545
C     -4.327905   -2.723477   -0.687055
C     -4.318950   -1.101626    1.001037
C     -3.029021   -2.431424   -1.000350
C     -3.012771   -0.765675    0.730179
C      1.836068   -0.076089    0.999923
C     -5.008353   -2.068255    0.320394
C     -2.368630   -1.443782   -0.283912
C      1.024252    0.172615   -0.213270
C      3.275051    0.125534    0.894396
C     -0.987538   -1.107378   -0.590638
C      1.126892    1.577204   -0.696568
O      3.865283    0.444256   -0.142727
O     -0.422853   -1.741891   -1.522636
O      2.172838    2.134895   -1.081991
O      4.048995   -0.050402    2.035608
O     -0.021296    2.397639   -0.746286
O     -0.331184   -0.122296    0.125576
H      6.821611   -1.451703    1.484311
H      5.212062   -1.558435    0.625925
H      6.388228   -0.304458    0.134526
H     -0.104837    3.281015   -3.309499
H      1.612995    3.672278   -2.750304
H      0.377788    4.934763   -2.903938
H     -6.943774   -1.541515    1.051220
H     -6.956080   -2.794759   -0.274012
H     -6.465031   -3.246180    1.386160
H      5.849705   -0.108169    3.036274
H      5.711724    1.155175    1.705798
H      0.680046    4.374355   -0.549115
H     -0.989824    4.126363   -1.176210
H     -4.857316   -3.490300   -1.235154
H     -4.850279   -0.585404    1.792638
H     -2.549003   -2.974936   -1.796050
H     -2.464508   -0.000674    1.267387
H      1.382955    0.504677    1.850499
H      1.640482   -1.150572    1.300838
H      1.336927   -0.489682   -1.055346
