53

C      7.486132    1.416035    0.207374
C     -3.638746    4.804383    0.426943
C     -5.115871   -4.122036   -1.093984
C      6.820763    0.083209   -0.051169
C     -3.498610    4.198590   -0.949458
C     -5.405003   -3.523835    0.262246
C      5.337421    0.122653    0.258769
C      4.781113   -1.237751   -0.029846
C      3.291336   -1.331974    0.242311
C      2.514789   -0.368954   -0.592422
C      1.026875   -0.425718   -0.362731
C      0.737692   -0.106531    1.074416
C     -3.778295    0.462759   -0.386251
C     -3.038370   -0.510653    0.494053
C     -0.743484   -0.146754    1.349605
C     -3.308385    1.848516   -0.266823
C     -3.561799   -1.898111    0.325067
O     -1.183110    0.092767    2.492818
O     -2.373771    2.126950    0.510575
O     -2.729080   -2.807886    0.085001
O     -3.887928    2.858684   -1.006605
O     -4.880921   -2.234895    0.415083
O     -1.653429   -0.447904    0.351665
H      8.591379    1.228196    0.142258
H      7.228821    2.170858   -0.559475
H      7.293036    1.785957    1.238920
H     -3.673657    5.919529    0.274609
H     -4.584147    4.516838    0.930825
H     -2.739604    4.608173    1.031655
H     -5.498109   -3.460494   -1.895586
H     -4.075214   -4.434962   -1.219635
H     -5.738436   -5.058292   -1.158642
H      7.342815   -0.681467    0.556845
H      7.013365   -0.174337   -1.113212
H     -4.159241    4.775067   -1.632866
H     -2.425266    4.258267   -1.241820
H     -6.520382   -3.438077    0.331652
H     -5.106996   -4.230602    1.060764
H      5.241804    0.360906    1.329023
H      4.875714    0.909308   -0.357641
H      4.975528   -1.517740   -1.084717
H      5.287872   -1.972312    0.604966
H      2.993784   -2.381342    0.048170
H      3.138571   -1.169769    1.342054
H      2.851600    0.662346   -0.340265
H      2.775833   -0.537380   -1.654113
H      0.570559    0.338296   -1.054901
H      0.668771   -1.427399   -0.643638
H      1.145566    0.843132    1.411084
H      1.154414   -0.949037    1.682529
H     -3.654712    0.066268   -1.438237
H     -4.891782    0.392354   -0.222066
H     -3.281205   -0.253828    1.558725
