42

C     -2.735989   -3.083862   -2.956968
C     -3.585186    5.183082    0.929426
C      5.844840   -1.473426   -0.864672
C     -2.987243   -3.267593   -1.495534
C     -2.426225    4.318417    1.339976
C      3.460024   -1.765119    2.029031
C      4.607821   -1.894161    1.241602
C      2.354171   -1.087744    1.545235
C      3.516241   -0.671668   -0.480224
C     -2.275730    0.140230    0.064894
C      4.638631   -1.348770   -0.012563
C      2.384527   -0.541858    0.290378
C     -1.060254    1.023499    0.000118
C     -2.137160   -1.105770   -0.686576
C      1.223793    0.171388   -0.222589
C     -1.282273    2.281911    0.797185
O     -1.066421   -1.338854   -1.301250
O      1.268219    0.663814   -1.370614
O     -0.489890    2.514958    1.738433
O     -3.116107   -2.078833   -0.780110
O     -2.314365    3.160730    0.518732
O      0.059781    0.330841    0.511714
H     -1.641584   -3.220521   -3.199329
H     -3.082855   -2.110196   -3.353432
H     -3.247827   -3.905096   -3.500847
H     -3.284023    5.912181    0.138370
H     -3.861995    5.794152    1.832686
H     -4.463619    4.589584    0.671166
H      6.018846   -2.523728   -1.153941
H      5.729995   -0.847334   -1.776229
H      6.701366   -1.079618   -0.272043
H     -2.171579   -3.926128   -1.100883
H     -3.924184   -3.850788   -1.350960
H     -1.477819    4.888213    1.300355
H     -2.623709    3.953215    2.368800
H      3.454460   -2.197648    3.005990
H      5.477791   -2.423618    1.614469
H      1.447211   -0.973455    2.139758
H      3.537741   -0.235695   -1.479839
H     -3.133837    0.771011   -0.289884
H     -2.526013   -0.096359    1.122765
H     -0.809572    1.350619   -1.034897
