45

C     -5.436520    3.684265    1.318083
C     -5.105084   -2.947701   -1.154917
C     -5.086081    2.210738    1.321203
C     -3.718595   -2.732269   -1.744392
C      7.586443    0.377781   -0.577292
C      7.024017   -0.848108   -0.823700
C      6.896369    1.363147    0.127296
C      5.748957   -1.130790   -0.372535
C      5.620131    1.068007    0.573924
C      3.692483   -0.472313    0.805728
C      2.718676   -0.080987   -0.255000
C     -1.780772    0.899644    0.049216
C      5.054468   -0.161698    0.327446
C     -1.121809   -0.416034   -0.149795
C      1.326923   -0.384394    0.201046
C     -3.117520    0.907826    0.617429
C     -1.789860   -1.355220   -1.044613
O      1.107079   -0.894835    1.335827
O     -3.690387   -0.147553    0.969889
O     -1.135951   -1.776431   -2.059151
O     -3.784017    2.092414    0.779178
O     -3.053096   -1.822640   -0.890523
O      0.216913   -0.126777   -0.583268
H     -5.031025    4.149321    0.374450
H     -6.540360    3.842461    1.348087
H     -4.966467    4.206049    2.176075
H     -5.836237   -3.126285   -1.979836
H     -5.404245   -2.016453   -0.623406
H     -5.089502   -3.807899   -0.466045
H     -5.819608    1.656593    0.728196
H     -5.128804    1.857502    2.375744
H     -3.834839   -2.321704   -2.762177
H     -3.231022   -3.730711   -1.761795
H      8.589899    0.597258   -0.933662
H      7.540666   -1.646949   -1.375662
H      7.356785    2.324347    0.311985
H      5.296991   -2.103275   -0.565494
H      5.051030    1.792308    1.119275
H      3.581229   -1.560619    0.984025
H      3.427529    0.053249    1.742816
H      2.818657    1.020826   -0.437547
H      2.862592   -0.578778   -1.214235
H     -1.767399    1.412907   -0.960605
H     -1.060999    1.527729    0.650976
H     -0.987638   -0.853948    0.886260
