47

C     -5.780815    0.799760    1.806886
C      3.639437    4.186321    0.913628
C      2.814456   -5.034067   -1.597731
C     -5.356830    1.365926    0.472792
C      2.646031    3.753586   -0.169992
C      2.132630   -4.562905   -0.331893
C     -3.843512    1.249940    0.305385
C     -3.421995   -0.177698    0.379713
C     -1.937082   -0.344609    0.236503
C     -1.487192    0.175854   -1.083250
C      3.055370    0.009592    0.465971
C      2.174495   -0.727807   -0.485791
C     -0.021850    0.011191   -1.292349
C      2.774896    1.439130    0.613710
C      2.613188   -2.156284   -0.482531
O      0.483820    0.387803   -2.369822
O      2.357352    1.865056    1.739555
O      3.845187   -2.366231   -0.619096
O      2.936287    2.362892   -0.401630
O      1.768835   -3.219044   -0.340819
O      0.802991   -0.547865   -0.332857
H     -6.564040    1.431866    2.271330
H     -4.935690    0.756903    2.535321
H     -6.179413   -0.220367    1.630898
H      3.944569    5.239416    0.807521
H      4.585885    3.571819    0.812958
H      3.248534    4.017281    1.923165
H      3.438508   -5.908020   -1.299871
H      3.496394   -4.297507   -2.025688
H      2.034961   -5.264607   -2.331580
H     -5.899358    0.909684   -0.357364
H     -5.588838    2.444125    0.478810
H      2.782277    4.366543   -1.059731
H      1.617445    3.813894    0.238798
H      1.179272   -5.162260   -0.247516
H      2.722353   -4.863109    0.579121
H     -3.602359    1.717578   -0.673514
H     -3.351270    1.879525    1.080546
H     -3.976419   -0.714565   -0.444166
H     -3.805226   -0.681839    1.309581
H     -1.413097    0.132507    1.095036
H     -1.715113   -1.439544    0.330571
H     -2.002287   -0.382282   -1.894512
H     -1.729410    1.265724   -1.168109
H      4.112277   -0.201336    0.156146
H      2.966896   -0.528284    1.454564
H      2.437450   -0.353685   -1.507334
