37

C      4.518315   -1.734602    1.027249
C     -1.195671    4.793145    0.086495
C     -2.122764   -2.051333    1.094894
C     -2.665056   -3.618550   -0.817466
C      3.215897   -1.000908    1.091154
C     -0.808997    3.602389    0.919829
C      0.836779   -0.041120   -1.692765
C     -0.474046    0.712199   -1.515225
C      1.441290   -0.200740   -0.343039
C     -0.248081    2.046130   -0.906705
C     -1.840208   -1.287843   -1.223775
N     -2.214929   -2.335418   -0.336866
O      0.890150    0.242626    0.697163
O      0.545086    2.874749   -1.412693
O      2.654177   -0.857474   -0.200237
O     -0.919420    2.382513    0.233026
O     -1.406104   -0.050660   -0.776491
S     -1.930726   -1.570325   -2.847863
H      4.540075   -2.555635    1.783054
H      5.338847   -1.032815    1.298548
H      4.736431   -2.085197    0.003026
H     -1.982579    4.559841   -0.668052
H     -1.563706    5.579774    0.779891
H     -0.310614    5.241839   -0.427713
H     -1.715669   -2.941887    1.633564
H     -1.463635   -1.186673    1.285698
H     -3.138026   -1.785595    1.455871
H     -3.511005   -3.936311   -0.141567
H     -3.096063   -3.570194   -1.824738
H     -1.819891   -4.334537   -0.732654
H      2.496653   -1.564254    1.732310
H      3.338320    0.007980    1.541566
H     -1.530793    3.557172    1.775354
H      0.184861    3.774487    1.365067
H      0.626982   -1.001897   -2.173979
H      1.499315    0.570546   -2.328830
H     -0.905193    0.798576   -2.550457
