52

C     -5.492317   -1.146046   -1.721301
C     -2.086954    2.697634    2.586133
C     -5.109078   -0.048808   -0.721489
C     -2.726242    2.941896    1.254725
C      6.200159    1.382327   -0.902658
C      0.852614   -3.663896    3.316634
C      5.234138    1.916826   -1.736048
C      6.024651    0.101758   -0.399053
C      2.056755   -3.624900    2.634518
C     -0.063685   -2.654381    3.081065
C      4.105569    1.223747   -2.083244
C      4.892052   -0.594729   -0.747077
C      2.346032   -2.614684    1.744227
C      0.250024   -1.644877    2.178024
C     -1.740168    0.782732   -2.422785
C      3.927699   -0.065371   -1.577036
C      1.450647   -1.601789    1.495047
C     -0.855088    0.702774   -1.247565
C     -3.158374    0.547581   -2.098183
C     -1.164132    1.702479   -0.210993
O     -3.978077    0.743721   -3.062599
O     -0.186145    2.355373    0.284968
O      0.554672   -1.958168   -1.258969
O     -3.700677    0.151808   -0.919293
O     -2.403636    2.003020    0.275915
O      2.779066   -0.750417   -1.940752
O      1.721645   -0.575346    0.602455
O      0.489401    0.688738   -1.490938
P      1.314497   -0.677516   -1.059427
H     -6.325052   -1.752348   -1.259634
H     -5.733904   -0.756131   -2.708276
H     -4.651523   -1.870879   -1.857891
H     -2.713303    3.072632    3.435464
H     -1.087542    3.153385    2.695032
H     -1.975405    1.606178    2.771531
H     -5.319393   -0.424380    0.283401
H     -5.675384    0.873900   -0.919604
H     -2.491397    3.992353    0.938570
H     -3.833407    2.929446    1.403789
H      7.081942    1.905554   -0.622822
H      0.592974   -4.444147    4.023486
H      5.408901    2.916891   -2.107152
H      6.741852   -0.367766    0.253905
H      2.753503   -4.437815    2.846621
H     -1.003010   -2.692105    3.617844
H      3.389996    1.673827   -2.726191
H      4.741625   -1.596597   -0.361261
H      3.295269   -2.634657    1.243378
H     -0.497422   -0.875575    2.026435
H     -1.715377    1.760392   -2.953047
H     -1.442476   -0.053283   -3.125558
H     -1.076513   -0.300362   -0.752321
