37

C      4.196359   -0.024982    1.239943
C      0.288656    3.947329    0.799841
C     -2.900014   -2.339446    0.691333
C     -3.634668   -3.318898   -1.469166
C      4.159956    0.466917   -0.170532
C     -0.884798    3.219318    1.411263
C      0.578341   -0.380080   -1.260520
C     -0.473285   -0.185521   -0.229718
C      1.956506   -0.499849   -0.740254
C     -0.225198    1.060586    0.531790
C     -2.394278   -1.131327   -1.440241
N     -2.959085   -2.230165   -0.756454
O      2.406012   -1.621819   -0.334655
O      0.881257    1.243301    1.075954
O      2.837183    0.565625   -0.658080
O     -1.190348    2.054140    0.669039
O     -1.769726   -0.132146   -0.734741
S     -2.471209   -1.028055   -3.057686
H      3.236659    0.065388    1.767883
H      4.557514   -1.093356    1.245141
H      4.926762    0.592236    1.803580
H      1.210613    3.651223    1.320492
H      0.294324    3.733785   -0.278509
H      0.115388    5.048700    0.918010
H     -2.089020   -2.985103    1.034703
H     -3.855629   -2.740546    1.081797
H     -2.784369   -1.326395    1.156139
H     -4.677640   -3.059513   -1.704267
H     -3.091374   -3.407464   -2.445571
H     -3.536923   -4.272296   -0.897681
H      4.742845   -0.231118   -0.839747
H      4.610275    1.486166   -0.282770
H     -0.679397    2.932712    2.480148
H     -1.798160    3.855344    1.417456
H      0.352156   -1.321161   -1.813486
H      0.500538    0.430090   -2.039480
H     -0.436223   -1.023618    0.509046
