38

C      6.016610   -0.657660   -0.178482
C     -5.301198   -3.423458   -0.012265
C     -0.895090    4.417699    0.005732
C      4.675336   -0.571362    0.532861
C     -4.495378   -2.295886    0.547735
C     -0.661295    3.567186   -1.195607
C      3.563024   -0.327353   -0.466492
C     -0.972074   -1.110452   -0.256840
C     -0.143927    0.049794    0.205018
C      2.276597   -0.247606    0.246705
C     -2.310178   -1.207692    0.356025
C     -0.744221    1.371125   -0.085784
O      2.223462   -0.372834    1.485870
O     -2.752980   -0.447655    1.246949
O     -1.846193    1.764737    0.362522
O     -3.213789   -2.214070   -0.047929
O     -0.096829    2.303887   -0.912120
O      1.113273   -0.032702   -0.452249
H      6.506178    0.327058   -0.162142
H      5.827245   -1.003835   -1.231958
H      6.705089   -1.385061    0.311142
H     -5.186848   -3.546611   -1.109035
H     -6.387309   -3.278355    0.182996
H     -5.033535   -4.396419    0.469350
H     -1.033440    3.871533    0.951064
H     -0.119151    5.203709    0.110267
H     -1.854285    4.987431   -0.167042
H      4.660347    0.223017    1.293106
H      4.538722   -1.539792    1.059565
H     -5.034111   -1.320416    0.412621
H     -4.323242   -2.472232    1.629239
H     -1.597656    3.464921   -1.809000
H      0.063469    4.072405   -1.887716
H      3.774872    0.584830   -1.046610
H      3.495033   -1.189192   -1.175462
H     -0.396079   -2.044646   -0.052499
H     -1.073760   -1.037510   -1.371212
H      0.033313   -0.086533    1.303009
