38

C      6.277427   -0.776201    0.143852
C     -2.382127    3.965605   -0.281886
C     -3.642438   -0.688979   -1.342837
C     -3.830589   -3.023342   -0.422920
C      5.057679   -0.332207    0.907787
C     -1.242200    3.305457    0.406863
C      1.400480   -0.652552   -0.064482
C      0.118343   -0.217218    0.518122
C      2.621908   -0.325705    0.696162
C     -0.099750    1.211605    0.723610
C     -1.886022   -1.568508    0.062303
C     -2.912602   -1.943772   -0.945536
Br    -1.939495   -2.638357   -2.488022
O      2.616220    0.231263    1.799262
O      0.676897    1.841465    1.470261
O     -1.847375   -2.011003    1.218563
O      3.890421   -0.648236    0.174121
O     -1.139582    1.927562    0.127098
O     -0.920823   -0.663233   -0.342495
H      7.065084   -1.148275    0.862571
H      6.680508    0.060751   -0.464017
H      6.011960   -1.635329   -0.501648
H     -2.978808    3.287287   -0.927314
H     -2.009648    4.855598   -0.856949
H     -3.087082    4.371185    0.469795
H     -3.619352   -0.539038   -2.447011
H     -4.703794   -0.797124   -1.030932
H     -3.259457    0.221487   -0.861386
H     -4.826990   -2.845589   -0.887385
H     -3.482879   -4.005923   -0.780001
H     -3.942119   -2.971179    0.675439
H      5.100746    0.745904    1.160037
H      4.994751   -0.909738    1.865429
H     -1.382945    3.384472    1.506985
H     -0.286602    3.807991    0.144759
H      1.365956   -1.786482   -0.090642
H      1.526967   -0.385128   -1.140345
H      0.017331   -0.704514    1.527386
