32

C      3.984837    1.534921   -0.189359
C     -0.892727    3.432426   -0.886454
C      2.931265    1.398532    0.867955
C     -1.761184    2.195850   -0.961392
C      0.638219   -1.350930   -0.546264
C     -2.798884   -4.340235    1.077180
C     -0.683521   -1.305183    0.113583
C      1.430231   -0.108580   -0.371672
C     -1.950120   -3.137811    1.166816
C     -1.523283   -0.192643   -0.404869
Br    -3.185197   -4.945122    2.876538
O      1.463414    0.795408   -1.278176
O     -1.587447   -2.655940    2.242386
O     -2.708448   -0.322208   -0.800919
O      2.187575    0.193193    0.748826
O     -0.996783    1.109940   -0.474542
O     -1.476845   -2.432158    0.082836
H      3.535492    1.848652   -1.152089
H      4.529187    0.568107   -0.269816
H      4.676411    2.357403    0.130393
H     -0.057749    3.331733   -0.157206
H     -0.457920    3.708639   -1.862942
H     -1.509656    4.306160   -0.527782
H      3.389768    1.420609    1.876871
H      2.249823    2.293766    0.751489
H     -2.097395    1.985377   -2.005901
H     -2.665425    2.294330   -0.307279
H      0.441972   -1.427304   -1.660582
H      1.283061   -2.188990   -0.316802
H     -2.185702   -5.124333    0.555727
H     -3.703344   -4.174105    0.500266
H     -0.499625   -1.069504    1.183180
