26

C     -4.600025   -0.338182   -0.156759
C     -3.138150   -0.572052   -0.400023
C     -2.324768    0.590471    0.072497
C      2.087924   -0.792445    1.230436
C      1.489029    0.261875    0.384011
C      3.428723   -1.169706    0.726912
C     -0.871364    0.280275   -0.222835
C      2.307355    1.477144    0.409558
O      4.190566   -1.902954    1.471572
O      3.973115   -0.819929   -0.478275
O     -0.544460   -0.235340   -1.313066
O      1.684401    2.572088    0.663453
O      3.635078    1.577755    0.196755
O      0.136205    0.544612    0.675893
H     -5.067649   -1.354514   -0.039157
H     -4.772435    0.268770    0.744708
H     -5.022300    0.195974   -1.018225
H     -2.809411   -1.473588    0.196210
H     -2.941280   -0.763588   -1.463552
H     -2.456865    0.795694    1.146293
H     -2.566166    1.527095   -0.492239
H      2.258929   -0.394360    2.273481
H      1.434824   -1.693418    1.349100
H      1.495155   -0.149392   -0.676156
H      4.973461   -0.669696   -0.640113
H      4.020108    2.237409   -0.491830
