44

C      3.080274    4.336778   -0.963610
C     -3.911100    1.390122    0.626446
C     -0.537668   -6.387097   -0.095362
C      2.609366    3.415897   -2.043606
C     -2.489036    1.879139    0.481304
C      2.517841    1.982892   -1.563728
C     -1.674850    1.645828    1.728110
C      1.553720    1.811971   -0.410089
C     -1.581760    0.196937    2.103173
C      1.243206   -2.027910   -0.424315
C     -0.648884   -4.952172   -0.414476
C     -0.100890   -2.580496   -0.043734
C      1.213805   -0.616703   -0.834453
C     -0.737078   -1.881202    1.079047
O     -1.391729   -4.610791   -1.370671
O      0.832557   -0.371323   -2.011205
O     -1.103973   -2.473895    2.128289
O      1.563353    0.446995   -0.052797
O     -0.968695   -0.507602    1.035637
O      0.007937   -3.965404    0.266795
H      3.397965    3.773757   -0.072556
H      3.986741    4.920110   -1.302796
H      2.249271    5.064226   -0.732085
H     -4.444878    1.671186   -0.305147
H     -3.905744    0.274489    0.671997
H     -4.444560    1.852586    1.463462
H      0.351455   -6.583468    0.567305
H     -1.417454   -6.756230    0.479820
H     -0.377269   -7.002451   -1.005964
H      3.331688    3.427423   -2.885414
H      1.631733    3.708998   -2.475877
H     -2.038896    1.358228   -0.376709
H     -2.539369    2.956144    0.226100
H      3.562147    1.697787   -1.258130
H      2.257878    1.384612   -2.457930
H     -0.660168    2.061983    1.561221
H     -2.136395    2.250470    2.535893
H      1.928683    2.457513    0.410189
H      0.548773    2.172512   -0.710059
H     -0.957103    0.135591    3.021349
H     -2.577564   -0.182818    2.355374
H      1.937503   -2.239951    0.415902
H      1.634931   -2.619082   -1.287921
H     -0.795765   -2.515581   -0.907788
