41

C      6.166445   -0.352888    1.327352
C     -6.856966    0.580700    0.129149
C      6.105158    0.932203    0.853318
C      5.277091   -1.281116    0.883548
C     -5.786711    1.432714    0.097356
C     -6.700012   -0.736799    0.472928
C      5.162231    1.295452   -0.060125
C      4.316068   -0.923150   -0.043397
C     -4.537953    0.933870    0.420906
C     -5.431564   -1.206324    0.792602
C      0.691504    1.062196   -0.779047
C      4.245228    0.369514   -0.527979
C     -4.350618   -0.381831    0.769203
C      0.320322    0.595322    0.592893
C      1.108615   -0.076261   -1.611136
C     -0.782593   -0.356703    0.609085
N      3.263012    0.751313   -1.483201
N     -3.043755   -0.862602    1.097944
N      2.350476   -0.194609   -1.930002
N     -1.962622    0.010443    1.063133
O      1.465258    0.030963    1.172248
O      0.230183   -1.055143   -2.087190
O     -0.702211   -1.656687    0.176337
H      6.916387   -0.641098    2.053665
H     -7.855174    0.937771   -0.119320
H      6.799480    1.688237    1.189573
H      5.263422   -2.322875    1.214616
H     -5.913949    2.460698   -0.171647
H     -7.540949   -1.405762    0.497793
H      5.075734    2.302057   -0.463811
H      3.596653   -1.643148   -0.412708
H     -3.719495    1.637361    0.383983
H     -5.360684   -2.251801    1.056714
H      1.569823    1.771850   -0.705517
H     -0.140387    1.644252   -1.258940
H      0.048558    1.498059    1.187842
H      3.249463    1.729843   -1.830157
H     -2.897816   -1.849276    1.359847
H      1.256574   -0.379293    2.037338
H      0.628164   -1.965400   -2.258047
H     -1.522396   -2.122050   -0.242375
