26

C      4.086221   -0.544677   -1.260253
C      2.614068   -0.455463   -0.918492
C      2.393340    0.319300    0.345333
C     -2.200882    0.817071   -0.655062
C     -1.426516   -0.006766    0.344775
C     -3.584211    1.097650   -0.220532
C      0.965330    0.420783    0.702680
C     -2.055617   -1.306917    0.578015
O     -4.544806    0.324836   -0.453892
O     -3.807161    2.288484    0.482789
O      0.622882    1.047330    1.753170
O     -3.246366   -1.443149    0.935743
O     -1.308569   -2.468612    0.398436
O     -0.062362   -0.121611   -0.026101
H      4.281060   -0.613054   -2.340008
H      4.549137   -1.430149   -0.756940
H      4.602003    0.356737   -0.841431
H      2.212539   -1.473289   -0.766818
H      2.046065    0.028108   -1.740813
H      2.827577    1.347563    0.299928
H      2.944754   -0.188931    1.182394
H     -2.257948    0.286171   -1.645434
H     -1.669800    1.786742   -0.842802
H     -1.432552    0.589009    1.302440
H     -4.757023    2.670827    0.511614
H     -1.791163   -3.327993    0.172666
