20

C      3.157946    0.124079    0.696075
C     -1.080257   -0.347453   -1.294108
C      1.770263    0.607516    0.527903
C     -0.576563   -0.018662    0.089682
C     -2.439201    0.190611   -1.493408
C     -1.471914   -0.608867    1.092881
O      1.424467    1.807935    0.601054
O     -2.993163    0.815966   -0.567304
O     -3.103259    0.013322   -2.682991
O     -1.536799   -0.197794    2.277173
O     -2.292188   -1.669169    0.739360
O      0.771658   -0.317451    0.271273
Na     0.000000    0.000000    0.000000
Na     0.000000    0.000000    0.000000
H      3.754361    0.741459    1.387313
H      3.137330   -0.924531    1.101426
H      3.691355    0.091310   -0.263448
H     -0.430057    0.049654   -2.090432
H     -1.106682   -1.460031   -1.439783
H     -0.677299    1.102107    0.193070
