36

C     -4.610546    0.130481   -0.732824
C      4.278882   -1.823633    0.566823
C     -3.602723    0.546899   -1.575241
C     -4.232711   -0.728108    0.283269
C      3.987545   -0.653792    1.230118
C      3.289874   -2.504385   -0.075665
C     -2.289862    0.117567   -1.397030
C     -2.940932   -1.155673    0.465584
C      2.689037   -0.158978    1.250586
C      1.981235   -1.995605   -0.048869
C      0.686371    3.139924   -0.888212
C      0.287777    3.456255    0.348930
C     -0.534452   -1.127674   -0.263065
C     -1.951785   -0.737555   -0.373310
C      1.690552   -0.841092    0.605275
C      0.318089   -0.312531    0.621253
C      0.760109    1.689678   -0.978709
C      0.089802    2.222986    1.101539
N      0.389104    1.096096    0.260851
O      1.111768    1.070867   -2.035611
O     -0.286614    2.206919    2.301191
H     -5.624697    0.470755   -0.881798
H      5.284022   -2.242204    0.528950
H     -3.869904    1.227211   -2.389837
H     -5.050218   -1.048522    0.943575
H      4.782226   -0.135607    1.728352
H      3.496544   -3.421721   -0.600610
H     -1.571065    0.506748   -2.130669
H     -2.702368   -1.814270    1.260018
H      2.539041    0.769627    1.795114
H      1.238957   -2.593237   -0.590775
H      0.902791    3.877418   -1.650309
H      0.144057    4.477531    0.704848
H     -0.102833   -1.157759   -1.276387
H     -0.579456   -2.207931    0.077338
H      0.002385   -0.346681    1.697790
