41

C      6.664567   -1.299836    0.153573
C     -6.733942   -1.163105   -0.387135
C      6.356320   -0.441209    1.183655
C      6.029947   -1.213593   -1.055515
C     -5.942027   -0.454895   -1.264172
C     -6.506632   -1.004540    0.954707
C      5.372357    0.535356    0.978413
C      5.051880   -0.235585   -1.246501
C     -4.947900    0.390593   -0.840175
C     -5.507669   -0.155530    1.403522
C      0.345716    0.208891   -0.565417
C      4.732758    0.627181   -0.231983
C     -4.724193    0.544962    0.514640
C     -0.292432    0.175714    0.801732
C      1.838953    0.228808   -0.357218
C     -1.785487    0.157975    0.619074
N      3.745365    1.612763   -0.433397
N     -3.734717    1.420717    1.002395
N      2.426901    1.306478   -0.543536
N     -2.413445    1.162548    1.032686
O      0.046280    1.358838    1.460625
O      2.459297   -0.921505    0.021012
O     -2.411235   -0.931466    0.016713
H      7.431889   -2.042638    0.358835
H     -7.514435   -1.830392   -0.724158
H      6.863136   -0.520431    2.133404
H      6.245935   -1.859049   -1.867992
H     -6.090470   -0.553192   -2.348629
H     -7.091715   -1.530982    1.678490
H      5.117151    1.215358    1.774672
H      4.538597   -0.137492   -2.175721
H     -4.333134    0.940742   -1.540904
H     -5.361048   -0.058707    2.477044
H      0.065351   -0.673572   -1.180266
H      0.080030    1.129496   -1.104245
H      0.030843   -0.652270    1.438859
H      4.081340    2.633214   -0.497242
H     -4.107896    2.355123    1.366926
H      0.044474    2.092468    0.780947
H      3.086130   -1.013963    0.776667
H     -3.156842   -1.403274    0.481453
