48

C      4.418928   -1.085803   -0.453932
C     -3.797448   -2.201147    0.734684
C      4.046697   -0.711337    0.987045
C      3.753193   -0.048315   -1.331007
C     -3.505382   -2.049994   -0.766355
C     -3.830140   -0.823370    1.292485
C      2.573443   -0.908383    1.113203
C      2.268003   -0.007709   -1.197505
C     -2.059883   -1.575361   -0.811673
C     -2.575240   -0.007361    1.055965
C     -0.127052    4.101058   -0.738840
C     -0.304618    3.991496    0.566227
C      0.339917   -0.428197    0.335678
C      1.788588    0.077786    0.233494
C     -2.008606   -0.146247   -0.306209
C     -0.603526    0.396774   -0.447533
C     -0.221564    2.782445   -1.341259
C     -0.528239    2.570815    0.892441
N     -0.478338    1.808798   -0.295680
O     -0.095955    2.559196   -2.572911
O     -0.720565    2.190513    2.060567
H      5.498151   -1.015980   -0.615199
H      3.995725   -2.099021   -0.619089
H     -4.798203   -2.631005    0.802168
H     -3.047663   -2.828084    1.231754
H      4.350375    0.334626    1.208586
H      4.552860   -1.408560    1.652434
H      4.213806    0.938290   -1.030981
H      4.005822   -0.299710   -2.372692
H     -3.664307   -2.997805   -1.282476
H     -4.147933   -1.218195   -1.115164
H     -3.949456   -0.906315    2.399611
H     -4.733142   -0.272348    0.955590
H      2.336356   -1.919457    0.688460
H      2.174000   -0.812692    2.125292
H      1.900831    0.864152   -1.752059
H      1.856137   -0.907505   -1.700087
H     -1.446675   -2.241367   -0.132163
H     -1.703826   -1.592101   -1.844098
H     -2.953431    1.061325    1.186818
H     -1.872603   -0.279341    1.868924
H      0.062071    5.033319   -1.289388
H     -0.284000    4.834410    1.267276
H      0.098984   -0.399997    1.398015
H      0.391798   -1.455961   -0.083199
H      1.908403    1.098749    0.595009
H     -2.697589    0.430869   -0.993761
H     -0.378706    0.204046   -1.558469
