42

C      0.696027   -4.018953   -0.765299
C      6.517312    0.396535    0.430128
C     -6.495211    1.985317   -0.103017
C      5.857468    0.595030   -0.765036
C      5.843711    0.395162    1.618125
C     -5.943475    1.336512   -1.190605
C     -5.732344    2.281113    1.002370
C      4.480704    0.794159   -0.720527
C      4.478707    0.593396    1.652745
C     -4.598143    0.983850   -1.153577
C     -4.417620    1.928640    1.021419
C      0.158364    0.632843   -0.247821
C      0.306543   -2.803254   -0.020068
C      3.796620    0.793828    0.473417
C     -3.847590    1.284059   -0.045933
C     -0.657235   -0.600756    0.161715
C      1.592042    0.342716   -0.304713
C     -2.083948   -0.290954    0.212693
N      2.398844    1.001332    0.456186
N     -2.476303    0.896080   -0.070590
O      0.550022   -2.742426    1.207223
O      2.143228   -0.613494   -1.141492
O     -3.043632   -1.217957    0.553328
O     -0.316997   -1.712650   -0.592093
H      1.557415   -4.537046   -0.334336
H     -0.204362   -4.691192   -0.873374
H      0.951173   -3.724926   -1.808027
H      7.588239    0.241976    0.391470
H     -7.541791    2.258823   -0.133632
H      6.390468    0.596304   -1.707365
H      6.411302    0.233410    2.539930
H     -6.561712    1.114666   -2.047344
H     -6.129364    2.789493    1.875792
H      3.969739    0.948793   -1.656914
H      3.948676    0.591056    2.602598
H     -4.136531    0.466083   -2.008673
H     -3.811766    2.159534    1.890533
H     -0.175694    0.859855   -1.298278
H     -0.093138    1.490424    0.372408
H     -0.338000   -0.785674    1.224310
H      2.947390   -1.167931   -0.872767
H     -3.979138   -1.083779    0.175095
