35

C      4.413049    0.867373   -0.182095
C     -5.794185   -0.232699   -0.818234
C      4.742407   -0.454993   -0.813352
C     -4.436541    0.427612   -0.628526
C      4.015346   -1.560563   -0.103228
C     -3.449145   -0.601784   -0.168949
C      0.406395   -0.677738    0.445155
C     -0.019494    0.768787    0.441446
C      1.869289   -0.802797    0.673005
C     -1.513205    0.871201    0.216800
N      2.612345   -1.370769   -0.190546
N     -2.143225   -0.178449    0.057240
O      0.666511    1.391146   -0.598817
O      2.346847   -0.261998    1.877025
O     -2.135339    2.109207    0.193857
H      4.684982    0.790737    0.894510
H      5.024186    1.685000   -0.659403
H      3.343379    1.067451   -0.310474
H     -6.572829    0.562867   -0.777007
H     -5.863438   -0.742372   -1.802393
H     -6.011556   -0.967693   -0.023799
H      4.445632   -0.457927   -1.879028
H      5.834778   -0.638806   -0.742080
H     -4.586622    1.150783    0.203170
H     -4.186264    0.871751   -1.596698
H      4.368470   -1.627305    0.965263
H      4.239001   -2.553909   -0.586920
H     -3.417653   -1.370438   -1.007833
H     -3.911957   -1.178074    0.672773
H      0.149944   -1.109546   -0.549509
H     -0.158161   -1.235318    1.221871
H      0.206411    1.297975    1.373327
H      0.346037    2.302093   -0.788756
H      3.222981   -0.555343    2.238566
H     -2.738374    2.414537   -0.545712
