42

C      1.536361    4.011239   -2.572666
C     -4.182728   -1.652341    1.444338
C      4.170075   -3.849679    0.912735
C     -4.054001   -1.503760    0.080785
C     -3.917971   -0.596713    2.289765
C      2.934355   -3.780595    1.532533
C      4.466625   -3.018748   -0.147299
C     -3.661069   -0.305612   -0.457866
C     -3.525949    0.601140    1.764403
C      2.010532   -2.848908    1.049626
C      3.524490   -2.095117   -0.611261
C     -0.768063    1.400356    0.454698
C      0.816250    2.729224   -2.317438
C     -3.399372    0.743674    0.406271
C      2.279409   -2.013364    0.000175
C      0.226300    1.019362   -0.649292
C     -1.763109    2.293823   -0.173485
C      1.229350    0.123310   -0.031707
N     -2.995307    1.967843   -0.186298
N      1.353007   -1.059286   -0.505349
O      0.186575    2.098505   -3.178847
O     -1.337599    3.486262   -0.745849
O      1.974103    0.615554    1.020424
O      0.862970    2.222558   -1.029202
H      1.296822    4.686544   -1.699759
H      2.612241    3.811738   -2.651506
H      1.137963    4.487605   -3.491346
H     -4.490507   -2.598036    1.831244
H      4.925195   -4.550882    1.242573
H     -4.273104   -2.366395   -0.565535
H     -4.012675   -0.690711    3.367445
H      2.672631   -4.418584    2.365537
H      5.442940   -3.088748   -0.620417
H     -3.562079   -0.196254   -1.530261
H     -3.303397    1.468465    2.377556
H      1.020755   -2.760238    1.510220
H      3.751152   -1.438638   -1.444457
H     -1.209131    0.525393    0.926022
H     -0.154877    1.983841    1.197400
H     -0.309436    0.532365   -1.491919
H     -1.989017    4.070217   -1.276988
H      2.479289   -0.046408    1.604997
