59

C     -7.646507    1.076463    1.470634
C      5.234811    1.841574    0.995472
C     -6.345432    0.683338    2.177486
C      6.280160    1.360686    0.021261
C     -5.678816   -0.461413    1.455299
C      5.837235    0.049567   -0.642393
C     -5.369449   -0.033977    0.047490
C      5.649726   -0.952983    0.445155
C     -4.450942    1.152536   -0.017520
C      5.215066   -2.301616   -0.006480
C     -3.116239    0.879263    0.643179
C      3.913640   -2.374902   -0.718499
C     -2.421026   -0.285428   -0.046999
C      2.725472   -1.905388    0.101633
C     -0.011112    0.974943   -1.175720
C      1.223580    0.201151   -1.665889
C     -1.159877    0.507485   -1.961825
C      0.939884   -1.220035   -1.431658
N     -2.176863   -0.030037   -1.429149
N      1.568316   -2.049268   -0.708350
O      2.292909    0.729437   -0.999949
O     -1.185759    0.636083   -3.360966
O     -0.212489   -1.697607   -2.134121
H     -7.481588    1.863775    0.732596
H     -8.107582    0.176317    0.999222
H     -8.319081    1.467055    2.264640
H      4.219534    1.860518    0.600295
H      5.305741    1.285107    1.968760
H      5.501755    2.899626    1.243921
H     -5.690276    1.560194    2.184061
H     -6.566011    0.368219    3.226705
H      6.463795    2.141163   -0.736765
H      7.203211    1.148267    0.608689
H     -6.399412   -1.302361    1.397188
H     -4.770705   -0.722160    2.034438
H      4.969995    0.275909   -1.256772
H      6.640647   -0.321882   -1.316801
H     -6.346388    0.304135   -0.398560
H     -5.013495   -0.843037   -0.601582
H      4.968785   -0.590987    1.243390
H      6.642420   -1.079984    0.945808
H     -4.913451    2.065151    0.365080
H     -4.225919    1.322988   -1.101709
H      5.975036   -2.789834   -0.656805
H      5.145107   -2.949541    0.896043
H     -2.489440    1.779257    0.536767
H     -3.195124    0.635482    1.706462
H      3.889794   -1.816785   -1.673290
H      3.726065   -3.437333   -0.975054
H     -3.100611   -1.178219    0.018847
H     -1.539031   -0.548702    0.549944
H      2.809533   -0.892359    0.485129
H      2.600462   -2.568044    1.000188
H     -0.105133    0.739052   -0.099352
H      0.124283    2.057278   -1.365730
H      1.268060    0.421139   -2.773257
H      2.147379    1.689836   -0.797406
H     -2.034244    0.886310   -3.855011
H     -0.410401   -2.685424   -2.071138
