29

C      4.359877    0.949302    0.477429
C     -3.622914    0.370333    1.415111
C      3.840480   -0.339136   -0.124717
C     -3.450685   -0.875188    0.583690
C      0.260740    0.387376   -1.023745
C     -0.749776   -0.673874   -0.573394
C      1.497804    0.161323   -0.250985
C     -2.015363   -0.536665   -1.302505
N      2.616819   -0.113005   -0.842343
N     -3.143897   -0.627793   -0.775304
O     -0.963186   -0.378630    0.792972
O      1.445925    0.247121    1.126550
O     -1.983373   -0.287740   -2.704072
H      3.736783    1.778516    0.095761
H      5.407532    1.121837    0.163391
H      4.272414    0.930484    1.589587
H     -4.679200    0.608590    1.539039
H     -3.102141    0.249973    2.393565
H     -3.186190    1.220010    0.820127
H      4.598538   -0.739440   -0.824111
H      3.661143   -1.061956    0.694736
H     -2.794467   -1.640058    1.056554
H     -4.469116   -1.386756    0.596213
H      0.405454    0.352030   -2.104051
H     -0.131447    1.383476   -0.736917
H     -0.336350   -1.694461   -0.619148
H     -0.817734    0.604632    0.961048
H      2.132661   -0.184687    1.722159
H     -2.790332    0.174384   -3.108963
