43

C      6.213727    1.771178    0.260210
C     -6.839523    2.117194   -0.237849
C      6.615047    0.802119   -0.633986
C      5.059963    1.606446    0.978673
C     -5.878144    2.406497   -1.194664
C     -6.591998    1.128902    0.693308
C      5.882382   -0.340949   -0.829654
C      4.319120    0.440167    0.774279
C     -4.710359    1.682334   -1.165219
C     -5.400589    0.407082    0.704522
C      0.548725   -1.133517    0.906979
C      3.963864   -1.777961   -0.363622
C     -3.144064   -0.005511   -0.331941
C      4.731410   -0.512740   -0.117635
C     -4.459246    0.690806   -0.232853
C     -0.627855   -1.517875    0.047788
C      1.772155   -1.035654    0.105484
C     -1.874706   -1.639353    0.803671
N      2.743666   -1.829147    0.386803
N     -2.964224   -1.001296    0.657430
O     -0.812887   -0.762770   -1.073226
O      1.952485   -0.142910   -0.937749
O     -1.888870   -2.597519    1.849308
H      6.803719    2.659443    0.397531
H     -7.755873    2.684577   -0.259991
H      7.521378    0.921086   -1.204910
H      4.715112    2.345119    1.688022
H     -6.012422    3.163866   -1.944909
H     -7.351067    0.922394    1.424479
H      6.219418   -1.084858   -1.536720
H      3.425417    0.316380    1.334163
H     -3.959214    1.917847   -1.923291
H     -5.199324   -0.363156    1.424702
H      0.374044   -0.195248    1.471247
H      0.655482   -1.926987    1.670903
H      4.627640   -2.625171   -0.048836
H      3.847751   -1.891822   -1.452588
H     -2.388293    0.803049   -0.267439
H     -3.087265   -0.472190   -1.341543
H     -0.378619   -2.561634   -0.318442
H     -0.323288    0.064539   -1.162566
H      2.424634   -0.479109   -1.764146
H     -2.769308   -2.953651    2.207678
