17

C     -0.438171   -0.268228    0.612893
C      0.521592    0.179134   -0.468137
C     -1.821980   -0.410697    0.081549
C      1.871528    0.295760    0.143355
N     -2.462931   -1.522828    0.109109
N      2.886702   -0.401853   -0.273481
O      0.161803    1.456814   -0.904536
O     -2.469962    0.691507   -0.473046
O      2.029745    1.188014    1.195825
H     -0.394457    0.469704    1.433364
H     -0.114328   -1.251795    1.008499
H      0.513898   -0.519815   -1.317697
H     -2.092733   -2.412551    0.493978
H      2.723087   -1.066549   -1.073849
H     -0.539341    1.415901   -1.595125
H     -3.300093    0.529927   -1.024402
H      2.925642    1.627557    1.367121
