41

C      6.577108   -0.283163    1.024699
C     -5.797403   -0.182890    1.388066
C      5.105264    0.022473    0.818799
C     -5.506803   -1.023626    0.162482
C      4.790478   -0.204623   -0.623298
C     -4.280658   -0.562291   -0.577244
C      3.337599    0.070559   -0.952986
C     -3.082320   -0.646553    0.343955
C      0.644224    0.337548   -1.414690
C     -0.209535    1.432593   -0.881868
C      1.157129   -0.628766   -0.438712
C     -1.444901    0.972609   -0.237363
N      2.444671   -0.766436   -0.208264
N     -1.874387   -0.221994   -0.293045
O     -0.616697    2.309830   -1.918048
O      0.303732   -1.435271    0.279457
O     -2.184876    1.927202    0.477495
H      6.724497   -1.379351    1.226140
H      7.161446   -0.090418    0.083342
H      7.037059    0.345690    1.809319
H     -5.552176   -0.731655    2.319521
H     -5.263483    0.787944    1.314683
H     -6.892462    0.092436    1.410128
H      4.912793    1.038656    1.163023
H      4.522657   -0.743388    1.409829
H     -5.373721   -2.085246    0.512511
H     -6.364677   -0.954136   -0.531391
H      5.081378   -1.236935   -0.902098
H      5.398644    0.484951   -1.244363
H     -4.463841    0.471127   -0.932237
H     -4.145097   -1.217104   -1.444876
H      3.237053   -0.187765   -2.048172
H      3.084295    1.129009   -0.774473
H     -3.286280   -0.151176    1.309291
H     -2.968774   -1.741355    0.592521
H      1.479464    0.834343   -1.988948
H      0.074436   -0.199247   -2.236533
H      0.369906    2.113536   -0.183703
H     -1.529109    2.634993   -1.782626
H      0.576219   -2.101517    0.982001
H     -3.182852    1.769409    0.628670
