41

C      4.256860    0.964829    1.306258
C     -6.088587    0.171487    0.420609
C      4.783083    1.212603   -0.091485
C     -5.058863    1.270868    0.603744
C      5.018841   -0.163848   -0.707659
C     -3.758109    0.626189    0.965044
C      3.679324   -0.870960   -0.713540
C     -3.347665   -0.312218   -0.164760
C      1.050628   -1.492307   -0.743021
C      0.235050   -1.076628    0.420650
C      1.544260   -0.354443   -1.526883
C     -0.955870   -0.313175    0.010961
N      2.790942   -0.064202   -1.509567
N     -2.100602   -0.926597    0.186100
O     -0.086247   -2.146943    1.257184
O      0.759603    0.470923   -2.316629
O     -0.978582    0.948005   -0.523391
H      3.159617    1.118126    1.348255
H      4.506149   -0.042352    1.687391
H      4.767065    1.685041    1.989305
H     -7.106652    0.618587    0.435026
H     -5.942202   -0.556443    1.230330
H     -5.934993   -0.287215   -0.573681
H      4.018114    1.775504   -0.662799
H      5.704160    1.796839   -0.095763
H     -4.984870    1.889275   -0.306183
H     -5.410397    1.922946    1.430597
H      5.692033   -0.772787   -0.074782
H      5.407957   -0.087558   -1.737122
H     -2.956289    1.329486    1.241095
H     -3.944159   -0.026174    1.847909
H      3.764783   -1.914195   -1.077528
H      3.272279   -0.925771    0.321663
H     -3.336511    0.171071   -1.143342
H     -4.104748   -1.129172   -0.215088
H      1.865821   -2.181792   -0.423137
H      0.350128   -2.074755   -1.428993
H      0.870093   -0.360496    1.027627
H     -0.702368   -2.728193    0.748588
H      1.085275    1.383684   -2.606980
H     -1.784352    1.452761   -0.847476
