31

C     -2.386350    1.869187   -1.325001
C      2.345613    2.305568    0.441733
C     -3.357704    1.563187   -0.490436
C      1.673343    1.486479   -0.355882
C     -3.303613    0.336015    0.384634
C      2.390727    0.582450   -1.277502
C     -0.395873   -1.639590    1.118200
C      1.041813   -1.185666    0.988407
C     -1.286453   -1.068316    0.058411
C      1.651872   -1.555225   -0.279610
N     -2.214000   -0.420394    0.261532
N      2.150907   -0.770608   -1.090985
O      1.731582   -1.949229    1.977158
O     -0.868969   -1.410916   -1.252500
O      1.683916   -2.930157   -0.625922
H     -2.494055    2.775949   -1.929060
H     -1.525255    1.229136   -1.389553
H      3.429316    2.341998    0.447584
H      1.822142    2.973725    1.122597
H     -4.251000    2.175949   -0.385100
H      0.597066    1.480788   -0.333545
H     -3.516691    0.767356    1.420747
H     -4.308175   -0.167204    0.145956
H      2.224392    0.908359   -2.358538
H      3.517274    0.749956   -1.179924
H     -0.730339   -1.362465    2.138583
H     -0.381559   -2.746249    1.072977
H      1.138702   -0.153613    1.318291
H      2.713004   -1.849514    1.853850
H     -1.328154   -1.058095   -2.072468
H      2.236521   -3.278861   -1.383524
