37

C     -4.753205    0.526738    1.336137
C      1.476490   -1.808199   -0.233469
C     -4.597462    0.843788   -0.123069
C     -3.168253    0.628229   -0.575090
C     -2.730991   -0.793982   -0.370984
C      5.928400    1.003884    0.745485
C     -1.308529   -1.027808   -0.819436
C      5.386087    0.010949    1.430270
C      5.258717    1.650819   -0.151098
C     -0.378868   -0.144907   -0.037276
C      3.912988   -0.013935    1.396799
C      4.044674    1.047187   -0.732290
C      1.078453   -0.361275   -0.468329
C      3.240518    0.476367    0.371580
O      1.860185    0.427909    0.391125
Li     0.000000    0.000000    0.000000
H     -4.031070    1.164776    1.904279
H     -4.593366   -0.539590    1.504966
H     -5.794425    0.755766    1.641917
H      1.574375   -2.345357   -1.204688
H      2.473044   -1.874351    0.256051
H      0.710140   -2.354434    0.368944
H     -4.810464    1.922741   -0.256111
H     -5.322529    0.285382   -0.731879
H     -3.109880    0.884021   -1.634519
H     -2.549758    1.312077    0.025708
H     -2.762269   -1.007735    0.737044
H     -3.394674   -1.523121   -0.854564
H     -1.245075   -0.735418   -1.897723
H     -1.009103   -2.071504   -0.733852
H      5.926462   -0.721676    1.967889
H      5.577433    2.619979   -0.475037
H     -0.426818   -0.365685    1.047243
H     -0.568347    0.929032   -0.189804
H      3.373703   -0.449504    2.243006
H      3.494691    1.706363   -1.398799
H      1.238729   -0.057524   -1.504974
