20

C     -3.359614    0.010728   -0.052649
C      2.475955    0.022705   -1.207566
C     -2.114571    0.905894   -0.089011
C      1.748128   -0.280524    0.084956
C      2.634159   -0.254475    1.254753
Cl     2.311592    0.838950    2.576339
O      3.595389   -0.988824    1.315553
O     -0.695291   -1.265921   -0.804007
O     -0.906888   -0.811737    1.584086
O      0.717756    0.645300    0.239565
S     -0.730193   -0.164333    0.240388
H     -4.210563    0.654723    0.190933
H     -3.187828   -0.781346    0.719714
H     -3.460822   -0.490300   -1.041164
H      2.479429   -0.854109   -1.886989
H      2.001203    0.852428   -1.776898
H      3.535297    0.248443   -0.978331
H     -1.992712    1.376432   -1.082293
H     -2.182894    1.655142    0.710826
H      1.342466   -1.319176    0.001796
