20

C      3.267183    0.172065    1.125905
C     -2.528346   -0.838707   -1.272966
C      2.079296    0.784073    0.406665
C     -1.657734   -0.153389   -0.259645
C     -2.431355    0.991554    0.304961
Cl    -4.034035    0.761940    0.974121
O     -1.969116    2.117019    0.315758
O      0.369692   -1.018430    1.367659
O      1.472686   -1.568967   -0.750592
O     -0.429549    0.215498   -0.735407
S      0.854159   -0.478911    0.048525
H      3.453440   -0.866795    0.771795
H      4.153135    0.769782    0.895916
H      3.135028    0.199084    2.240199
H     -2.568163   -1.938648   -1.129063
H     -2.155020   -0.614473   -2.301982
H     -3.575722   -0.474998   -1.242142
H      1.652248    1.587585    1.012482
H      2.405311    1.222230   -0.554817
H     -1.493141   -0.867510    0.582642
