121

C    -11.605736    0.411502   -3.658550
C     10.228848    3.131355   -2.552983
C    -10.592560    1.449203   -3.184897
C     11.637222    2.735121   -2.612782
C     -9.446527    0.798999   -2.466803
C     12.166137    1.519635   -2.015433
C     -8.456230    1.819526   -1.985648
C     12.201276    1.215887   -0.597114
C     -9.100710    2.809404   -1.025926
C     11.014955    1.007893    0.228176
C     -8.064954    3.716060   -0.521298
C     10.076865    2.074473    0.379303
C     -7.790118    3.905335    0.743120
C      8.785714    1.939279    0.112886
C     -8.481508    3.242687    1.846962
C      8.104386    0.720023   -0.366943
C     -7.650786    2.446234    2.749456
C      7.105120    0.342653    0.672271
C     -7.759221    1.155861    3.043964
C      7.185732   -0.804398    1.329256
C     -8.776886    0.300267    2.469848
C      8.182083   -1.849343    1.182030
C     -8.340524   -0.967327    1.804370
C      7.695108   -3.211757    0.837652
C     -7.325959   -0.905772    0.735617
C      6.913708   -3.426045   -0.357440
C     -5.946074   -0.471888    1.211757
C      5.572575   -2.885275   -0.561949
C     -5.464926   -1.467415    2.271287
C      4.460334   -3.263257    0.324348
C     -5.369914   -2.853682    1.704988
C      4.394873   -2.825952    1.717688
C     -4.327492   -2.980524    0.616221
C      3.227703   -3.479337    2.422524
C     -1.000381   -1.459556    1.808727
C      0.040590   -1.727992   -0.504606
C      0.266682    3.215030   -0.871849
C     -0.032259   -2.149591    0.932184
C     -2.973216   -2.738679    1.159618
C      1.922458   -3.314511    1.810617
C      0.027573    0.742539   -0.617920
C     -1.002629    3.677592   -1.484145
Cl    -1.012438    3.461760   -3.258362
Cl    -1.052512    5.475554   -1.242743
Cl    -2.482344    3.074542   -0.723723
O     -2.329020   -3.759848    1.587248
O      1.281535   -4.372262    1.483646
O     -1.038991    0.873148    0.000102
O     -2.324599   -1.532355    1.260613
O      0.511017   -0.506964   -0.845711
O      0.650112    1.906387   -1.033778
O      1.278989   -2.132039    1.534455
H    -12.434324    0.976768   -4.136036
H    -12.017883   -0.136908   -2.766694
H    -11.190801   -0.312177   -4.356065
H      9.497640    2.315982   -2.560677
H      9.942249    3.848975   -1.740613
H     10.007145    3.780307   -3.490297
H    -10.277327    2.009643   -4.087376
H    -11.140796    2.076387   -2.448249
H     11.938211    2.712205   -3.730954
H     12.291460    3.613618   -2.260641
H     -9.842995    0.192182   -1.617514
H     -8.906316    0.114040   -3.165823
H     11.518670    0.654571   -2.484931
H     13.177986    1.233887   -2.503994
H     -7.497793    1.436679   -1.666696
H     -8.227185    2.452504   -2.908919
H     12.858934    2.062630   -0.111013
H     12.928002    0.310704   -0.462243
H     -9.707654    2.283824   -0.293348
H     -9.815969    3.424894   -1.647762
H     11.400933    0.735083    1.293637
H     10.535852    0.041725   -0.151142
H     -7.458375    4.294729   -1.251119
H     10.439001    3.049154    0.728384
H     -6.980474    4.619781    0.980759
H      8.159836    2.822223    0.264051
H     -8.910187    4.077923    2.537448
H     -9.378256    2.700075    1.557788
H      7.480045    1.092086   -1.267836
H      8.682842   -0.116836   -0.666851
H     -6.800876    2.958359    3.282662
H      6.298870    1.054404    0.874179
H     -7.034210    0.706167    3.768541
H      6.403587   -0.941917    2.097018
H     -9.413624    0.840869    1.719283
H     -9.552038   -0.007517    3.253138
H      8.988439   -1.628981    0.410178
H      8.777389   -1.942767    2.175885
H     -9.304120   -1.452910    1.437712
H     -8.028228   -1.695116    2.625809
H      8.669867   -3.857139    0.696903
H      7.259375   -3.643888    1.791693
H     -7.652807   -0.153428   -0.007124
H     -7.193609   -1.878117    0.195114
H      7.537756   -2.980160   -1.239178
H      6.965473   -4.534420   -0.702744
H     -5.900362    0.519866    1.636448
H     -5.257152   -0.547715    0.362046
H      5.276487   -3.151575   -1.638000
H      5.670247   -1.757340   -0.646901
H     -6.073795   -1.463244    3.174880
H     -4.431191   -1.163322    2.545507
H      4.276103   -4.384180    0.201521
H      3.517268   -2.847388   -0.181407
H     -6.303735   -3.281991    1.348435
H     -5.008482   -3.508568    2.536531
H      5.252336   -2.986991    2.374055
H      4.137883   -1.705245    1.773700
H     -4.612552   -2.350934   -0.223431
H     -4.362770   -4.041719    0.259245
H      3.467052   -4.583624    2.551635
H      3.227647   -3.124107    3.507118
H     -0.728328   -0.482272    2.198111
H     -1.120971   -2.084329    2.779223
H      0.709632   -2.531338   -0.990996
H     -0.986424   -1.943940   -0.925942
H      1.112573    3.852066   -1.287250
H      0.249629    3.537154    0.212657
H     -0.287889   -3.261540    0.860237
