20

C      3.881321    0.259233    0.186286
C     -2.866570   -0.548970    1.104180
C      2.657254   -0.418030   -0.402542
C     -2.177132   -0.021806   -0.160529
C     -2.952322    1.093295   -0.718653
C      0.275812   -0.181566   -0.248829
Cl    -2.226955    2.689150   -0.830700
O     -4.097768    0.973189   -1.118493
O      0.170055   -1.128093   -1.042236
O      1.527181    0.245910    0.131718
O     -0.901477    0.399732    0.215501
H      3.631934    0.840389    1.108845
H      4.216292    1.019505   -0.565233
H      4.672931   -0.447071    0.462659
H     -3.953099   -0.498062    1.037588
H     -2.517291    0.082606    1.934513
H     -2.465347   -1.572644    1.254405
H      2.637277   -1.460987    0.014593
H      2.667888   -0.454771   -1.492290
H     -2.179984   -0.871012   -0.870782
