33

C     -0.617758    0.548734   -1.815560
C     -4.678058   -0.324255    0.896944
C     -3.984754   -1.249067    0.147681
C     -4.022494    0.836902    1.243223
C     -2.674076   -1.013662   -0.240910
C     -2.708999    1.060898    0.847625
C      2.706205   -1.431875    0.437644
C      2.243160    0.677579   -0.741629
C      3.815621   -0.634291    1.114573
C      3.444907    1.278811    0.004996
C     -0.609442    0.397945   -0.313775
C     -2.008980    0.143437    0.099555
C      0.340488   -0.590605    0.172035
N      1.726689   -0.467345   -0.030746
O      4.383368    0.256901    0.206972
S     -0.190845   -1.899546    0.984375
H     -0.849644    1.604030   -2.051416
H     -1.492260   -0.026721   -2.224675
H      0.261925    0.144947   -2.323031
H     -5.713993   -0.513059    1.202660
H     -4.465931   -2.165672   -0.139810
H     -4.574632    1.557245    1.831539
H     -2.111497   -1.732128   -0.832325
H     -2.246197    2.002736    1.155358
H      2.288892   -2.113372    1.208748
H      3.169576   -2.006635   -0.368608
H      1.491265    1.482091   -0.764698
H      2.569631    0.330513   -1.745567
H      3.351103   -0.029795    1.916312
H      4.607543   -1.304156    1.482036
H      3.829124    2.086533   -0.637270
H      3.052122    1.679884    0.946397
H     -0.332058    1.412998    0.103745
