33

C      3.643150   -1.152397    0.636752
C      0.923201    4.614218   -0.412070
C      3.244292   -0.648622   -0.728847
C     -3.101994   -3.266316    0.153226
C     -3.516458   -2.089885    0.741765
C     -2.091489   -3.166124   -0.780073
C     -2.950056   -0.875591    0.414440
C     -1.518930   -1.949229   -1.112844
C     -1.331322    0.528836   -0.877370
C      0.407635    3.328306    0.150174
C     -1.933829   -0.772764   -0.523681
C     -0.173749    0.942643   -0.037254
C      0.936682   -0.036166   -0.114050
O      0.028844    3.284809    1.354583
O      0.784061   -1.208469    0.314890
O      2.181136    0.282535   -0.653350
O      0.323202    2.176416   -0.584214
H      2.855631   -0.878521    1.346575
H      4.647267   -0.762251    0.937835
H      3.782466   -2.267041    0.545126
H      0.192226    5.399613   -0.107739
H      1.950021    4.835567   -0.042915
H      0.889982    4.556135   -1.507636
H      2.917290   -1.492904   -1.389226
H      4.113413   -0.118430   -1.166719
H     -3.552902   -4.220156    0.416041
H     -4.313732   -2.153192    1.480699
H     -1.757179   -4.092336   -1.250951
H     -3.273747    0.051057    0.875390
H     -0.723386   -1.899801   -1.857232
H     -2.126722    1.321521   -0.765634
H     -1.017641    0.572107   -1.943128
H     -0.437362    1.156431    1.015017
