33

C      0.278579   -2.498238   -0.658355
C      3.837554    1.049707   -0.261761
C      2.921112    0.725467   -1.217809
C      3.680497    0.474797    0.981029
C      1.851541   -0.145855   -0.998555
C      2.634750   -0.386878    1.222283
C     -2.699159    0.387666    1.126914
C     -1.370201    0.495722   -0.898885
C     -2.707248    1.881017    0.870018
C     -2.688335    1.123332   -1.317338
C      0.591532   -1.625201    0.521177
C      1.698039   -0.713446    0.232467
C     -0.641257   -1.021004    1.024967
N     -1.492080   -0.097182    0.414241
O     -1.014545   -1.383431    2.207293
O     -3.120815    2.092525   -0.433639
H     -0.817468   -2.470646   -0.844691
H      0.515105   -3.564299   -0.349774
H      0.810109   -2.253534   -1.575080
H      4.668701    1.730824   -0.443033
H      3.042611    1.178855   -2.202648
H      4.365219    0.683360    1.786214
H      1.198239   -0.319607   -1.856128
H      2.488014   -0.851033    2.185749
H     -3.595862   -0.032281    0.628924
H     -2.635281    0.142929    2.194144
H     -1.153710   -0.267461   -1.667920
H     -0.611995    1.300249   -0.848538
H     -3.367769    2.429752    1.566440
H     -1.655653    2.232344    0.991507
H     -2.515265    1.609947   -2.301160
H     -3.478356    0.373748   -1.447850
H      0.983399   -2.282145    1.369798
