20

C      2.866801    1.034247   -0.388976
C     -0.381126   -1.727428   -0.050739
C     -2.741694    0.787658    0.083561
C      1.727642    0.081010   -0.565418
C      0.538808    0.512894   -0.202640
C     -0.713611   -0.276270   -0.297394
O     -1.588432    0.253726    0.605644
Cl     0.000000    0.000000    0.000000
Hg     0.000000    0.000000    0.000000
H      3.774270    0.709661   -0.929353
H      2.564321    2.077343   -0.657292
H      3.078904    1.071865    0.710735
H      0.650474   -1.823293    0.375383
H     -1.071431   -2.217600    0.655580
H     -0.378309   -2.329212   -0.987688
H     -2.459215    1.607018   -0.612675
H     -3.439832    0.059960   -0.338590
H     -3.271124    1.302841    0.932569
H      1.903940   -0.921713   -0.979065
H     -1.060385   -0.202708   -1.358684
