28

C      2.811479   -1.558990    1.329399
C      0.310700    2.362075   -0.088345
C     -3.301349   -0.641059   -0.285625
C      1.810335   -0.917924    0.466389
C      1.185014    0.223306    0.805795
C      0.180005    0.848846   -0.081908
C     -1.934934   -0.260744   -0.691723
O     -1.443257   -0.535050   -1.815325
O     -1.131453    0.435984    0.194190
C     -0.662836    0.017665    0.038376
C      0.815779   -0.069073   -0.060793
O      1.416442   -1.170903   -0.132929
O      1.570481    1.081654   -0.075720
Hg     0.000000    0.000000    0.000000
H      3.169877   -0.829582    2.106568
H      3.700445   -1.793100    0.704383
H      2.424238   -2.469366    1.838761
H      0.476220    2.765094   -1.107721
H      1.226052    2.626713    0.502409
H     -0.538328    2.847459    0.415955
H     -3.210142   -1.398365    0.527417
H     -3.852204   -1.120972   -1.121879
H     -3.849241    0.274421    0.061474
H      1.550146   -1.366427   -0.487411
H      0.416397    0.507680   -1.119955
H     -0.986658    1.058494   -0.088380
H     -1.142670   -0.585802   -0.733414
H     -1.010538   -0.332034    1.052860
