24

C      4.535030    0.873584    0.340078
C     -3.517068    1.246387    0.182860
C     -2.741483    1.378865   -0.963509
C     -3.086362    0.370128    1.157997
C     -1.564854    0.639323   -1.106680
C     -1.925039   -0.369497    1.033154
C     -1.170334   -0.224039   -0.110423
C      0.073656   -1.019856   -0.239398
C     -0.108333   -2.132487   -1.209395
C      2.297794   -0.069903    0.039380
Cl    -1.340344   -3.366590   -0.956076
O      0.574269   -2.245200   -2.212208
O      2.378824   -0.673540    1.124292
O      3.337951    0.726348   -0.422976
O      1.131948   -0.203347   -0.720543
H      5.078030    1.766250   -0.007936
H      4.234832    0.930854    1.394239
H      5.215906    0.008426    0.210802
H     -4.408598    1.824136    0.261833
H     -3.057582    2.057024   -1.738677
H     -3.677056    0.254214    2.056578
H     -0.957975    0.736987   -1.993505
H     -1.642602   -1.042494    1.839565
H      0.339389   -1.465570    0.735616
