22

C      3.003545    0.394879   -0.181966
C      2.409269    0.090197    1.023154
C      2.226286    0.432403   -1.334075
C      1.067820   -0.170378    1.069701
C      0.871568    0.162034   -1.241150
C      0.257644   -0.143187   -0.057399
C     -1.684942    0.323119    1.290784
C     -1.164341   -0.435908    0.148758
C     -2.034459   -0.350856   -1.057450
Cl    -1.547194   -1.482165   -2.307399
Cl    -2.171104    1.314180   -1.677656
Cl    -3.691363   -0.821671   -0.532790
O     -2.046904   -0.276227    2.327534
O     -1.779598    1.724567    1.226351
O     -1.194882   -1.813605    0.522088
H      4.074496    0.604144   -0.227483
H      3.049466    0.068703    1.913840
H      2.685398    0.670921   -2.284708
H      0.644943   -0.406143    2.045911
H      0.293208    0.203798   -2.149230
H     -2.570244    2.176503    1.710753
H     -0.698612   -2.265308   -0.227569
