20

C      2.174272   -0.650289    0.178922
C     -0.760265    1.329363   -1.401543
C     -2.008633   -1.060864    0.811805
C      1.718460    0.611775    0.792207
C      0.497125    1.086633    0.610031
C     -0.534582    0.404908   -0.223887
O     -1.636768    0.232594    0.558747
Cl     0.000000    0.000000    0.000000
Hg     0.000000    0.000000    0.000000
H      1.989972   -0.658524   -0.926807
H      1.677692   -1.551744    0.595548
H      3.265091   -0.778101    0.376503
H     -1.533131    0.992624   -2.087985
H      0.205479    1.379679   -1.948926
H     -1.012216    2.324281   -0.989783
H     -2.253710   -1.665092   -0.066222
H     -1.195052   -1.596111    1.354219
H     -2.882669   -1.036304    1.495367
H      2.378117    1.200238    1.421236
H     -0.089182   -0.565066   -0.549432
