25

C      3.277059    1.443134   -0.301402
C     -3.148322    1.289345   -0.625932
C     -1.976725    1.501933   -1.316174
C     -3.164551    0.358639    0.396637
C     -0.828371    0.779058   -0.975919
C     -2.007180   -0.345774    0.713279
C     -0.819895   -0.145657    0.030587
C      1.584367   -0.083947    0.537293
C      0.382961   -0.938972    0.430671
C      0.621360   -2.090624   -0.528175
Cl    -0.816142   -3.146082   -0.501531
Cl     2.012590   -3.004595    0.118759
Cl     1.017313   -1.557439   -2.149636
O      2.171912   -0.010745    1.643961
O      0.171190   -1.534575    1.678725
O      2.118399    0.654915   -0.513868
H      3.411163    2.096579   -1.175396
H      3.117027    2.031562    0.636866
H      4.126841    0.734313   -0.159239
H     -4.052867    1.835241   -0.868286
H     -1.987324    2.233263   -2.110537
H     -4.092024    0.202200    0.930068
H      0.066113    0.969530   -1.536750
H     -2.087255   -1.057623    1.521841
H      0.902359   -2.213679    1.776253
