26

C     -3.515188   -1.850940   -0.296328
C      2.567464   -0.549238   -1.898215
C      3.438525   -0.628292   -0.837232
C      1.293744   -0.147026   -1.685225
C      2.975139   -0.294180    0.400741
C     -2.554333   -0.794776   -0.702186
C      0.767794    0.209007   -0.428127
C      1.657983    0.119814    0.614058
C     -0.608357    0.668780   -0.284107
C     -0.810885    1.912636    0.489599
N      1.322004    0.416957    1.947433
O     -2.643893   -0.250139   -1.845690
O     -0.049532    2.908462    0.395268
O     -1.877752    2.090104    1.396708
O      2.257117    0.946497    2.778436
O      0.201813    0.178629    2.374732
O     -1.530135   -0.344412    0.105265
H     -3.972816   -1.628019    0.692092
H     -4.312350   -1.885563   -1.065248
H     -3.022971   -2.862480   -0.265387
H      2.905299   -0.807982   -2.890437
H      4.461186   -0.945906   -0.977451
H      0.607486   -0.084051   -2.515741
H      3.674086   -0.362164    1.223694
H     -0.908470    0.991567   -1.348688
H     -2.322958    2.992716    1.503855
