21

C      1.763630   -1.518972   -0.173313
C      2.496032   -0.438784    0.259162
C      0.434183   -1.342589   -0.462994
C      1.955437    0.788544    0.408114
C     -0.149433   -0.068542   -0.312064
C      0.592077    0.984451    0.113277
C     -1.611617   -0.051850   -0.602539
C     -2.256459   -1.292925   -0.045506
N      0.082866    2.295964    0.268377
O     -2.246741    1.027622   -0.018519
O     -1.691002   -1.974332    0.819416
O     -3.493722   -1.641544   -0.530361
O      0.623670    3.060828    1.309831
O     -0.747082    2.815520   -0.465752
Na     0.000000    0.000000    0.000000
H      2.242599   -2.500734   -0.283024
H      3.552029   -0.581821    0.489248
H     -0.140188   -2.179439   -0.812279
H      2.523475    1.654133    0.749255
H     -1.730000   -0.018931   -1.699246
H     -2.199755    0.983403    0.988916
