24

C     -4.210075   -0.048643   -1.156027
C      0.715417   -0.203297   -0.805828
C      1.193862   -0.033482    1.502084
C      2.011313    0.175370   -1.060031
C      2.492059    0.345817    1.240431
C      0.277465   -0.316168    0.493606
C      2.928795    0.458195   -0.062904
C     -1.061880   -0.707218    0.922054
C     -2.083955   -0.763246   -0.137573
N      4.260075    0.846939   -0.343747
O     -1.471403    0.185626    1.918197
O     -1.952456   -1.537900   -1.116730
O      5.108566    1.109834    0.690242
O      4.631149    0.941594   -1.520022
O     -3.243925    0.022914   -0.127822
H     -4.364615   -1.076653   -1.525000
H     -5.153685    0.370079   -0.749348
H     -3.935048    0.566312   -2.039713
H      0.002126   -0.421473   -1.588368
H      0.880514   -0.112824    2.539429
H      2.323807    0.254450   -2.097702
H      3.209134    0.567070    2.033872
H     -1.049325   -1.724096    1.412639
H     -1.507917    1.100801    1.565717
