22

C      2.958167    0.597779    0.040495
C      1.968611    1.548080    0.174853
C      2.615285   -0.720779   -0.116142
C      0.622130    1.162828    0.150718
C      1.286665   -1.072104   -0.136510
C      0.244465   -0.143443   -0.004020
C     -1.949053    0.283959   -0.936921
C     -1.153745   -0.583498   -0.039099
C     -1.779239   -0.675739    1.340252
Cl    -3.467949   -1.220170    1.125498
Cl    -1.834364    0.909054    2.134404
Cl    -0.934561   -1.883300    2.303808
O     -2.460366   -0.203984   -2.005761
O     -2.167873    1.606087   -0.672146
O     -1.163349   -1.902519   -0.549668
H      3.988748    0.945193    0.065443
H      2.189818    2.610165    0.301987
H      3.420425   -1.435158   -0.218119
H     -0.115495    1.940914    0.264352
H      1.009056   -2.115794   -0.260384
H     -2.254867    2.261939   -1.433679
H     -1.022508   -1.909510   -1.529360
