21

C     -0.002500    1.049182   -0.463173
C      0.096460   -1.174466    0.291315
C      1.357090    1.106804   -0.666098
C      1.462105   -1.149937    0.099000
C     -0.666443   -0.059978    0.009194
C      2.107029   -0.028350   -0.375097
C     -2.153407   -0.059016    0.209029
C     -2.879476   -0.337446   -1.030132
N      3.517179   -0.020167   -0.567767
O     -2.568746    1.113579    0.844528
O     -3.516950    0.553270   -1.620376
O     -2.857734   -1.617211   -1.557788
O      4.231866   -1.153642   -0.272623
O      4.068937    1.011658   -0.998312
Na     0.000000    0.000000    0.000000
H     -0.593305    1.925090   -0.686078
H     -0.431031   -2.051489    0.665160
H      1.879379    1.978208   -1.037295
H      2.053387   -2.030993    0.323627
H     -2.364877   -0.886344    0.946417
H     -2.738963    1.831249    0.190617
