21

C      1.044583    0.340199    1.956654
C     -0.280409    0.196546    1.613994
C      2.025972    0.192383    1.000425
C      0.380415   -0.247835   -0.671329
C     -0.581128   -0.095785    0.299963
C      1.725506   -0.099921   -0.313552
C     -2.016450   -0.259703   -0.110922
C     -2.425507    0.926713   -0.879342
N      2.756768   -0.246975   -1.278801
O     -2.104426   -1.404533   -0.926796
O     -3.648817    1.164581   -1.060553
O     -1.500954    1.800853   -1.416356
O      4.056044   -0.093223   -0.881668
O      2.490029   -0.509259   -2.458150
Na     0.000000    0.000000    0.000000
H      1.313497    0.570557    2.983858
H     -1.073762    0.312275    2.369048
H      3.073767    0.302452    1.254695
H      0.165058   -0.475948   -1.701647
H     -2.620186   -0.350994    0.791040
H     -2.780002   -2.022384   -0.570563
