21

C      0.501343    1.789754    1.141678
C     -0.591236    0.973610    0.944622
C      1.727460    1.378881    0.668238
C      0.724452   -0.633782   -0.174084
C     -0.491859   -0.234666    0.291134
C      1.829815    0.168298    0.012916
C     -1.735042   -1.041346    0.130769
C     -2.581459   -0.430671   -0.926321
N      3.078647   -0.288009   -0.489101
O     -2.452064   -1.074560    1.321697
O     -2.256866   -0.516555   -2.132565
O     -3.739571    0.241338   -0.595424
O      4.177375    0.496500   -0.309872
O      3.187337   -1.373332   -1.080233
Na     0.000000    0.000000    0.000000
H      0.368096    2.726629    1.660222
H     -1.562465    1.319055    1.330098
H      2.608388    1.986143    0.800533
H      0.815040   -1.569220   -0.682883
H     -1.436584   -2.054942   -0.178076
H     -2.170808   -1.863125    1.822959
