37

C     -0.958215    1.629090    1.470452
C     -2.556393   -1.728994    3.473723
C      5.431091   -0.223967   -1.317026
C     -3.687046   -0.146431   -2.346677
C      4.879586    0.948359   -1.801716
C      4.682552   -1.057430   -0.525088
C     -2.340533   -0.251894   -2.609289
C     -4.055097    0.100593   -1.045206
C      3.579801    1.222381   -1.455801
C      3.373350   -0.748544   -0.196321
C     -1.393331   -0.112362   -1.588110
C     -3.103957    0.240160   -0.026075
C      2.801229    0.412982   -0.666470
C     -1.753102    0.134920   -0.285217
C      1.433870    0.801263   -0.362434
C     -1.066907   -0.702389    1.837307
C     -0.724432    0.312353    0.761973
O      0.975787    1.864823   -0.818958
O     -0.215491   -1.567199    2.208071
O     -2.283176   -0.763503    2.474258
O      0.575197    0.064389    0.415133
H     -0.867352    2.501754    0.837046
H     -0.305007    1.633284    2.364377
H     -2.004059    1.595004    1.846922
H     -2.524613   -2.766124    3.089440
H     -1.830454   -1.563786    4.302950
H     -3.562444   -1.480071    3.881904
H      6.456378   -0.483036   -1.564228
H     -4.430772   -0.251217   -3.120403
H      5.420350    1.637995   -2.426172
H      5.085474   -1.985555   -0.128145
H     -2.021788   -0.444392   -3.616761
H     -5.111918    0.186199   -0.821719
H      3.137003    2.154096   -1.839256
H      2.765719   -1.396638    0.429510
H     -0.350033   -0.212321   -1.814390
H     -3.451268    0.446206    0.982396
