28

C     -0.306425    2.377706    0.914719
C      3.877258   -1.939818    0.092155
C     -3.038686   -1.620452    0.407142
C     -1.843889   -1.854990    1.040529
C     -3.214178   -0.487695   -0.334392
C     -0.790268   -0.971803    0.955266
C     -2.145655    0.411749   -0.423069
C     -0.950404    0.180214    0.208128
C      0.333217    1.632971   -1.303324
C      2.013688   -0.347553    0.132947
C      0.130417    1.166607    0.078939
O      1.518948    1.550739   -1.781290
O     -0.608724    2.146139   -2.133150
O      1.541357   -0.919546   -0.870971
O      3.204853   -0.849176    0.643458
O      1.342901    0.720250    0.661935
H     -1.393594    2.461279    0.970191
H      0.198160    3.290050    0.536499
H      0.063558    2.248706    1.965671
H      3.739777   -2.040774   -1.013236
H      3.696731   -2.899083    0.615848
H      4.980043   -1.739643    0.219980
H     -3.860906   -2.323937    0.481935
H     -1.690655   -2.764270    1.641052
H     -4.155970   -0.310394   -0.829043
H      0.159108   -1.170527    1.473755
H     -2.379219    1.287276   -1.026802
H     -0.421445    2.765976   -2.910859
