27

C      0.400575    0.158265   -1.938943
C     -3.414398   -1.272505    0.776876
C     -2.869323   -1.653404   -0.429439
C     -2.759219   -0.359743    1.568222
C     -1.663392   -1.090459   -0.799657
C     -1.559694    0.201220    1.201598
C     -1.015610   -0.183435   -0.009835
C      0.272253    1.845252   -0.241212
C      2.638063    0.064244    0.165863
C      0.285830    0.382338   -0.479567
C      3.664838   -0.584885    1.000447
F      3.604081   -1.967768    0.791028
F      4.918604   -0.188067    0.539238
F      3.550740   -0.274635    2.338820
O     -0.570067    2.533160   -0.864084
O      1.133459    2.488396    0.625993
O      2.912603    0.925139   -0.731752
O      1.287992   -0.217841    0.298844
H      0.636151   -0.907469   -2.221344
H     -0.586204    0.373513   -2.401685
H      1.111679    0.856440   -2.445316
H     -4.354645   -1.689555    1.101284
H     -3.415357   -2.371974   -1.020063
H     -3.197037   -0.056787    2.532279
H     -1.276146   -1.433157   -1.773125
H     -1.031818    0.922572    1.816184
H      1.296044    3.501143    0.599345
