36

C     -3.933121   -3.003390   -1.215476
C      4.395668   -1.024690    0.320229
C     -0.365162   -0.319442    1.662604
C     -3.469107   -1.586952   -1.264938
C      3.156043   -1.363796   -0.480114
C      0.440216    4.235479    0.039242
C      0.657850    3.438090   -1.082725
C     -0.018335    3.620731    1.185969
C      0.427907    2.082272   -1.063316
C     -0.248340    2.269077    1.207763
C     -0.030479    1.490915    0.095320
C     -2.155312   -1.407323   -0.549389
C      0.800881   -0.751904   -0.444822
C     -0.305556    0.036377    0.192101
O     -1.573781   -2.381039    0.002617
O      0.639881   -1.503682   -1.425417
O      2.078606   -0.641549    0.083916
O     -1.531323   -0.188596   -0.462725
H     -4.803021   -3.105972   -1.880982
H     -3.095153   -3.646629   -1.566678
H     -4.233075   -3.269250   -0.192339
H      5.315838   -1.112737   -0.290003
H      4.437112   -1.740155    1.193263
H      4.302202   -0.017375    0.741435
H     -1.349476   -0.039618    2.098009
H      0.458581    0.129102    2.236958
H     -0.217544   -1.434307    1.754462
H     -4.179656   -0.908880   -0.729056
H     -3.340714   -1.201389   -2.280347
H      2.974242   -2.438079   -0.538641
H      3.322648   -0.977394   -1.525908
H      0.629888    5.303489   -0.003461
H      1.014798    3.882641   -1.993381
H     -0.186366    4.243199    2.055832
H      0.594428    1.473175   -1.921211
H     -0.611270    1.859600    2.154753
