22

C     -1.620622    0.727638    1.316344
C      2.863717   -0.186338   -0.435977
C      2.346421    0.590258    0.559622
C      2.044186   -0.853422   -1.320410
C      0.979018    0.714169    0.688763
C      0.676802   -0.738909   -1.203465
C      0.160294    0.049146   -0.192982
C     -1.992023   -1.120840   -0.171903
C     -1.298361    0.184001   -0.051763
O     -2.899374   -1.374642   -1.002526
O     -1.613301   -2.136294    0.694544
O     -1.776598    1.108632   -0.980077
Na     0.000000    0.000000    0.000000
H     -1.366449    1.791351    1.436677
H     -1.081219    0.145564    2.066004
H     -2.718503    0.636937    1.503336
H      3.916592   -0.281276   -0.534789
H      3.002175    1.108884    1.247646
H      2.440918   -1.471275   -2.112833
H      0.622717    1.342307    1.495465
H      0.057568   -1.260768   -1.894847
H     -2.743956    1.024877   -1.106829
