43

C     -1.822444   -1.115676   -0.766292
C      2.924719    0.389036   -0.191484
C      2.443781   -0.391513    0.831995
C      2.037473    0.994728   -1.051586
C      1.093253   -0.555040    0.981397
C      0.655372    0.817886   -0.886260
C      0.165132    0.047536    0.123674
C     -2.000241    1.107172    0.281730
C     -1.286790   -0.172449    0.321283
O     -2.052845    1.782559   -0.749357
O     -2.632626    1.584493    1.409248
O     -1.470753   -0.756409    1.579769
C     -1.807944    1.343219    0.704237
C      2.807355   -0.395006   -0.160840
C      1.999701   -1.420965   -0.605594
C      2.337222    0.802962    0.290394
C      0.628643   -1.198990   -0.583847
C      0.969433    0.994746    0.300357
C      0.113932    0.007099   -0.131548
C     -2.014056   -1.044501    0.414402
C     -1.358343    0.173963   -0.136459
O     -1.781877   -1.425626    1.589034
O     -2.904890   -1.784704   -0.379845
O     -1.779615    0.375668   -1.442284
Ba     0.000000    0.000000    0.000000
H     -2.268032   -2.027109   -0.274923
H     -2.589302   -0.573846   -1.362427
H     -0.981146   -1.397813   -1.427798
H      3.993361    0.500105   -0.284849
H      3.144200   -0.859982    1.497722
H      2.377018    1.608459   -1.858339
H      0.686845   -1.167975    1.783583
H     -0.027277    1.298934   -1.582247
H     -2.389697   -1.113099    1.625158
H     -2.860839    1.150483    1.065990
H     -1.840871    2.292734    0.153842
H     -1.169915    1.492873    1.599002
H      3.867579   -0.569542   -0.178800
H      2.412228   -2.356414   -0.955757
H      2.968351    1.605901    0.638408
H     -0.013653   -1.999373   -0.931402
H      0.583954    1.924349    0.649512
H     -1.156395    0.031124   -2.117964
