34

C     -1.322155   -0.604260   -2.195762
C      5.188367    0.509261    0.138873
C     -3.675557    2.009964    1.187609
C      4.697840    0.172952    1.381227
C      4.383350    0.515796   -0.953166
C     -3.272460    0.890226    1.876791
C     -3.237913    2.224748   -0.087854
C      3.342938   -0.165536    1.502581
C      3.045019    0.177104   -0.808932
C     -2.412645   -0.039723    1.283477
C     -2.387491    1.289175   -0.651903
C      2.509823   -0.165332    0.409215
C     -1.953943    0.153071   -0.006887
C      1.110107   -0.516756    0.544299
C     -1.422346   -2.191482   -0.414037
C     -1.028343   -0.796127   -0.685501
O      0.577178   -0.835795    1.634086
O     -0.572791   -3.031030   -0.091410
O     -2.745294   -2.546018   -0.524324
O      0.314122   -0.506429   -0.556997
H     -2.380487   -0.407394   -2.336637
H     -0.956684   -1.503519   -2.757311
H     -0.712831    0.242168   -2.569232
H      6.224320    0.767666    0.048317
H     -4.342007    2.731429    1.646525
H      5.291138    0.151556    2.278998
H      4.781558    0.779781   -1.911110
H     -3.631281    0.729256    2.901159
H     -3.553673    3.104876   -0.632261
H      2.954547   -0.431575    2.484872
H      2.434684    0.193001   -1.698231
H     -2.124482   -0.899834    1.843572
H     -2.050330    1.487382   -1.677931
H     -3.072280   -3.488604   -0.602116
