31

C     -0.923256    2.986051    0.271140
C      4.022517   -1.005124    0.230431
C      0.106861    1.943772    0.625497
C      3.066555   -1.499520   -0.812001
C     -3.514427   -1.713916   -0.109076
C     -3.514620   -0.554078    0.635034
C     -2.389992   -2.049126   -0.839282
C     -2.381979    0.253536    0.634174
C     -1.293583   -1.234735   -0.819362
C     -1.265724   -0.048373   -0.071270
C      1.115790   -0.247962    0.033088
C     -0.020168    0.709371   -0.166271
O      1.313645   -0.774806    1.157380
O      0.032378    1.120887   -1.535715
O      1.986493   -0.593298   -0.989466
H     -1.503808    3.350554    1.127319
H     -0.421665    3.881757   -0.174783
H     -1.582010    2.548700   -0.511645
H      4.135882   -1.703917    1.070432
H      5.029317   -0.820869   -0.205663
H      3.637134   -0.047164    0.647006
H      1.116532    2.382280    0.402195
H      0.101427    1.806777    1.724304
H      2.654443   -2.519628   -0.564556
H      3.536112   -1.615530   -1.812072
H     -4.370052   -2.375596   -0.141524
H     -4.379844   -0.270490    1.213366
H     -2.407842   -2.965260   -1.418657
H     -2.398523    1.155373    1.228274
H     -0.439794   -1.555177   -1.416072
H      0.952203    1.455512   -1.706788
