27

C      4.004541    1.819544    0.391504
C     -4.146560    1.435712    0.684100
C      0.040127    0.484932    0.213510
C      1.341595    0.927575    0.272544
C      0.746259   -1.729750   -0.091201
C     -0.299889   -0.835309    0.032847
C      2.072898   -1.299149   -0.033852
C      2.347071    0.021859    0.147001
C     -1.645810   -1.375211   -0.039588
C     -2.748605   -0.445533   -0.066306
O      3.112914   -2.214326   -0.160741
O     -1.710659   -2.269264   -1.100485
O     -3.585800   -0.560082   -1.002100
O      3.656471    0.479485    0.208088
O     -3.009801    0.577604    0.823474
H      3.706961    2.463588   -0.470220
H      5.100785    1.860061    0.578677
H      3.422673    2.197495    1.264863
H     -4.971749    0.907057    0.128513
H     -3.863417    2.298328    0.045510
H     -4.501484    1.800014    1.663800
H     -0.739666    1.196173    0.312088
H      1.544220    1.976787    0.416217
H      0.613424   -2.793306   -0.236927
H     -1.780244   -2.017568    0.884581
H      2.979616   -3.196212   -0.295282
H     -1.685873   -1.710506   -1.930836
