43

C     -3.264909    0.820692   -0.809551
C     -2.533585   -3.339020    1.328513
C     -1.966131    0.397122   -1.381426
C     -1.193887   -2.842870    1.773305
C      4.996993   -1.663145   -1.912524
C     -0.663806    4.373452    1.284461
C      4.971008   -1.395361   -0.572739
C      3.866152   -1.490393   -2.676843
C     -0.488558    3.295083    2.119261
C     -0.927263    4.116467   -0.036854
C      3.799269   -0.944264    0.035250
C      2.701691   -1.038193   -2.052534
C     -0.577476    1.983327    1.630046
C     -1.013975    2.803054   -0.517979
C      2.669290   -0.767534   -0.707337
C     -0.838694    1.703898    0.313579
C      1.436971   -0.295294   -0.079067
C     -1.465525   -0.643645    0.697453
C     -0.905411    0.341709   -0.246305
O      1.509479   -0.075075    1.160028
O     -2.534137   -0.479747    1.327226
O     -0.763594   -1.822130    0.897192
O      0.281051   -0.105687   -0.793308
H     -3.927691   -0.042517   -0.533681
H     -3.834231    1.364345   -1.610284
H     -3.189947    1.454084    0.089206
H     -2.866876   -2.811650    0.410546
H     -3.255010   -3.188338    2.170674
H     -2.506119   -4.429731    1.038924
H     -2.080014   -0.696877   -1.652459
H     -1.598006    0.892501   -2.264069
H     -1.138831   -2.561045    2.834458
H     -0.455417   -3.686734    1.645003
H      5.902900   -2.019871   -2.423595
H     -0.603584    5.399012    1.620643
H      5.875850   -1.539499    0.008465
H      3.920588   -1.711085   -3.732776
H     -0.281033    3.498183    3.160103
H     -1.073604    4.940276   -0.734393
H      3.851446   -0.751880    1.101366
H      1.841578   -0.915841   -2.680418
H     -0.456887    1.175509    2.328440
H     -1.220067    2.698714   -1.556003
