21

C      1.689213    0.818081   -2.848124
C      1.246210    0.079912   -1.775614
C     -2.372874    1.296869    1.415575
C     -2.635011    0.239762    0.569627
C     -1.089733    1.730691    1.599145
C     -1.616222   -0.379887   -0.090929
C     -0.070117    1.072393    0.906322
C     -0.287817    0.018862    0.056261
C      1.957082   -1.047570    0.168157
C      0.791782   -0.679428   -0.711491
O      2.633980   -0.142437    0.711830
O      2.313701   -2.367834    0.399305
O      0.244176   -1.893336   -1.200524
H      2.012479    1.325360   -3.598355
H     -3.213779    1.772736    1.926143
H     -3.664561   -0.089803    0.435467
H     -0.842964    2.554909    2.244962
H     -1.771012   -1.221869   -0.765381
H      0.956272    1.414283    1.043868
H      3.274385   -2.575798    0.676140
H      0.444810   -1.925897   -2.157504
