29

C      4.581455   -0.032451    0.408502
C     -3.068101   -2.076850   -1.037982
C      3.527666   -0.916955    1.032978
C     -2.054814    2.335890    0.968128
C     -3.199276    1.570750    0.884287
C     -0.854656    1.884025    0.407369
C     -3.134785    0.355192    0.238035
C     -0.782295    0.676586   -0.236815
C     -1.942028   -0.079780   -0.311968
C      0.443384    0.128226   -0.854824
C      1.635257    0.253038   -0.024246
O      0.260061   -1.179598   -1.231727
O      2.064382    1.329856    0.472035
O     -1.892534   -1.302900   -0.958046
O      2.370440   -0.887017    0.255440
H      5.594205   -0.471915    0.515320
H      4.353520    0.019338   -0.684752
H      4.543783    1.011436    0.774365
H     -3.809398   -1.635944   -1.735237
H     -3.570122   -2.196480   -0.043993
H     -2.873045   -3.107364   -1.395140
H      3.933346   -1.966914    0.971515
H      3.367715   -0.682606    2.101707
H     -2.102617    3.289126    1.474166
H     -4.116613    1.941261    1.325898
H      0.035484    2.483645    0.474571
H     -4.052972   -0.224790    0.188292
H      0.606139    0.758978   -1.781532
H      0.136416   -1.275782   -2.196345
