43

C     -3.411971   -0.474588   -1.325520
C      0.198371    4.270232    0.916344
C     -1.959281   -0.407487   -1.626496
C     -0.969586    3.338499    0.938865
C      5.244981    0.098439   -1.701417
C     -2.059797   -3.594386    2.153894
C      5.056965    0.208121   -0.345014
C      4.116361   -0.057425   -2.502592
C     -2.130478   -3.692759    0.804148
C     -1.673040   -2.392450    2.703469
C      3.784515    0.163243    0.188940
C      2.844893   -0.099893   -1.942997
C     -1.814408   -2.591584    0.010513
C     -1.363350   -1.312735    1.936568
C      2.663542    0.010136   -0.588162
C     -1.428184   -1.391752    0.549078
C      1.329519   -0.034715   -0.003827
C     -1.564018    1.044609    0.286027
C     -1.138077   -0.247005   -0.317782
O      1.246080    0.072276    1.241740
O     -2.720206    1.263895    0.725129
O     -0.633267    2.064484    0.369319
O      0.183461   -0.182477   -0.704755
H     -3.657023   -0.653063   -0.259113
H     -3.918292   -1.312566   -1.883833
H     -3.959621    0.461010   -1.615409
H     -0.149841    5.314514    0.860562
H      0.811583    4.054407    0.015845
H      0.869807    4.085102    1.787371
H     -1.717703    0.515522   -2.250695
H     -1.621173   -1.273145   -2.174898
H     -1.755645    3.759219    0.270266
H     -1.376662    3.201821    1.967847
H      6.230979    0.130351   -2.146539
H     -2.307236   -4.458623    2.783978
H      5.907138    0.329658    0.303676
H      4.249771   -0.144184   -3.563173
H     -2.436248   -4.641266    0.366099
H     -1.613672   -2.305550    3.792488
H      3.624248    0.250192    1.273176
H      1.998843   -0.223100   -2.613366
H     -1.900525   -2.775944   -1.044566
H     -1.081753   -0.369029    2.364814
