25

C     -3.036327    0.176352   -0.903503
C     -1.558414    0.042052   -1.043926
C      3.291090   -0.478914   -0.598097
C      2.526067   -1.523730   -0.124830
C      2.707013    0.748618   -0.779888
C      1.206718   -1.295906    0.147077
C      1.375176    0.976641   -0.504927
C      0.613826   -0.069294   -0.032216
C     -1.146252    1.284701    1.062784
C     -0.831486    0.075180    0.290744
O     -0.942864    2.443088    0.644416
O     -1.700850    1.177209    2.330193
O     -1.198693   -1.041991    1.039284
K      0.000000    0.000000    0.000000
H     -3.485462    0.759071   -1.731571
H     -3.495629   -0.840837   -0.949615
H     -3.348449    0.616802    0.067807
H     -1.302194   -0.940852   -1.520586
H     -1.169270    0.824361   -1.724393
H      4.323036   -0.668332   -0.807759
H      3.009067   -2.501065    0.015332
H      3.296197    1.573931   -1.149906
H      0.616840   -2.131064    0.519910
H      0.911665    1.927995   -0.644725
H     -0.660804   -1.134014    1.847591
