28

C     -4.082701   -1.456982    0.793598
C      3.773012   -0.389183    1.846050
C     -0.181340   -1.209617   -0.788552
C     -1.459759   -1.278261   -0.267768
C     -0.172468    1.159776   -0.345015
C      0.443742    0.019746   -0.817472
C     -1.441851    1.042327    0.162783
C     -2.121875   -0.167554    0.218321
C      1.818002    0.118684   -1.372519
C      2.744662    0.320956   -0.236428
N     -2.100205    2.204744    0.657074
O      1.902632    1.211826   -2.213501
O      3.427496    1.352203   -0.174894
O     -3.406818   -0.219373    0.745010
O      2.866855   -0.626700    0.770007
H     -4.480035   -1.649801   -0.242879
H     -4.919014   -1.356437    1.520544
H     -3.423399   -2.271121    1.140989
H      3.370425    0.472253    2.408848
H      3.864152   -1.273986    2.484354
H      4.768322   -0.102685    1.448160
H      0.319006   -2.077110   -1.161188
H     -1.932396   -2.233222   -0.250701
H      0.356316    2.116314   -0.385243
H      2.100447   -0.777335   -1.952612
H     -2.107512    2.427174    1.669813
H     -2.577971    2.836087   -0.004385
H      2.652276    1.807278   -2.011033
