25

C      1.536692   -1.780178    0.049997
C      1.735369   -0.474091    0.768827
C     -3.155653   -0.064321   -0.041143
C     -2.306346   -0.603982   -0.957217
C     -2.591155    0.745014    0.932796
C     -0.939298   -0.395794   -0.972500
C     -1.239713    0.969168    0.942578
C     -0.384645    0.417381    0.008851
C      1.683016    1.014281   -1.223526
C      1.078264    0.702895    0.084934
O      2.176184    2.146742   -1.438806
O      1.727734    0.086468   -2.242091
O      1.190319    1.854924    0.906679
K      0.000000    0.000000    0.000000
H      1.935862   -1.826093   -0.962020
H      2.140885   -2.540735    0.633045
H      0.484752   -2.131976    0.125354
H      2.836780   -0.280501    0.802876
H      1.379719   -0.600090    1.809038
H     -4.221720   -0.221145   -0.021725
H     -2.739494   -1.242344   -1.728046
H     -3.240857    1.193233    1.681503
H     -0.322520   -0.841918   -1.712562
H     -0.834643    1.610160    1.723076
H      2.070467    2.262901    0.830083
