30

C      4.542648   -0.981081   -1.165782
C      1.013010    2.920718    0.613631
C     -4.632427    1.202171    0.016871
C      0.530067   -1.882086   -0.507651
C      1.862462   -1.618673   -0.735396
C      0.147484    0.341710    0.145693
C     -0.351055   -0.912147   -0.064410
C      2.328076   -0.330260   -0.508982
C      1.486607    0.658707   -0.069740
C     -1.757224   -1.277915    0.147203
C     -2.660106   -0.162469    0.475311
O     -2.260178   -1.999939   -0.965131
O     -2.501911    0.596431    1.463996
O      3.659789    0.015479   -0.715419
O      1.898944    1.942494    0.167294
O     -3.786800    0.128464   -0.322221
H      4.563180   -1.790620   -0.397365
H      5.572640   -0.608035   -1.281107
H      4.225219   -1.396538   -2.136036
H      0.132684    2.973254   -0.080343
H      0.693836    2.816971    1.657907
H      1.536685    3.909301    0.545583
H     -4.087345    2.002016    0.573828
H     -5.096563    1.688409   -0.859665
H     -5.443355    0.854328    0.717522
H      0.156522   -2.881731   -0.680588
H      2.548864   -2.384784   -1.083386
H     -0.517527    1.122307    0.488494
H     -1.851152   -2.009971    1.003196
H     -1.953073   -2.936514   -0.890299
