24

C      4.221873    0.402134    0.920440
C     -0.494606    0.890943   -0.268474
C     -1.494959   -1.243551    0.128913
C     -1.745981    1.471531   -0.234177
C     -2.735253   -0.629711    0.157474
C     -0.362385   -0.462275   -0.088224
C     -2.894935    0.724571   -0.020430
C      0.924540   -1.178621   -0.108566
C      2.111374   -0.322032   -0.132263
N     -4.178944    1.337254    0.012347
O      0.932670   -2.049313    0.999285
O      2.341138    0.507189   -1.045788
O      3.060356   -0.389839    0.880132
H      4.918848    0.048681    0.131600
H      3.943238    1.449848    0.695504
H      4.691801    0.271364    1.911181
H      0.362455    1.523739   -0.437145
H     -1.431906   -2.320468    0.276357
H     -1.857465    2.528617   -0.374271
H     -3.641627   -1.206389    0.324332
H      0.966018   -1.835268   -1.013473
H     -4.673793    1.541087   -0.883200
H     -4.668706    1.601877    0.894682
H      1.706248   -2.661365    0.984053
