21

C     -0.959713    1.651868   -0.876080
C      0.326454    1.266204   -0.505001
C     -2.020505    0.813276   -0.550591
C     -0.507181   -0.706664    0.468155
C      0.568393    0.092680    0.165936
C     -1.804067   -0.359255    0.116623
C      1.908429   -0.327330    0.562487
C      2.707787   -0.886233   -0.574386
N     -2.883355   -1.222755    0.453371
O      2.633898    0.728378    1.132851
O      3.765359   -1.493968   -0.250757
O      2.355895   -0.770862   -1.887273
Na     0.000000    0.000000    0.000000
H     -1.158973    2.573982   -1.404412
H      1.151310    1.938285   -0.769033
H     -3.029654    1.077814   -0.820974
H     -0.371450   -1.649630    0.999944
H      1.872015   -1.133729    1.326154
H     -3.237902   -1.919522   -0.214082
H     -3.338304   -1.155610    1.407349
H      2.021565    1.483071    1.219718
