26

C     -0.999682    2.313505   -0.396751
C     -2.216625    1.725960   -0.175772
C      0.172949    1.554192   -0.490852
C     -2.278859    0.365202   -0.045239
C      0.104255    0.187957   -0.358283
C     -1.119960   -0.409840   -0.135808
C      1.360310   -0.593149   -0.481372
C      2.396067    0.024422    0.372374
N     -1.200658   -1.804013   -0.002776
O      1.225533   -1.923245   -0.141540
O      2.828506    1.189270    0.297654
O      2.955795   -0.798749    1.383922
N     -0.000765   -0.007615    0.274178
H     -0.954543    3.384302   -0.498994
H     -3.099926    2.325353   -0.107284
H      1.071622    2.109245   -0.677739
H     -3.237621   -0.134261    0.131899
H      1.698913   -0.482184   -1.560310
H     -0.807406   -2.117230    0.897274
H     -0.909672   -2.351398   -0.842783
H     -2.241399   -2.046952    0.082094
H      1.778533   -2.191610    0.616329
H      3.473869   -0.326778    2.133956
H     -0.567959   -0.794452   -0.093076
H     -0.416652    0.878734   -0.089731
H      0.985376   -0.076668   -0.091371
