21

C      0.821313   -1.169961    1.451953
C     -0.413082   -1.016520    0.861687
C      1.914099   -0.480740    0.982862
C      0.590030    0.536286   -0.674829
C     -0.509895   -0.151875   -0.209362
C      1.836420    0.394381   -0.094488
C     -1.847471    0.013476   -0.847682
C     -2.707382    0.889877   -0.013123
N      2.969033    1.097681   -0.567436
O     -2.488661   -1.198691   -1.049209
O     -2.407274    1.084944    1.193110
O     -3.840918    1.502222   -0.536087
Na     0.000000    0.000000    0.000000
H      0.922039   -1.844617    2.295942
H     -1.293242   -1.562935    1.229069
H      2.905313   -0.588135    1.437813
H      0.500349    1.221681   -1.528089
H     -1.683307    0.509417   -1.820943
H      2.865264    1.999062   -1.068203
H      3.925078    0.727079   -0.423455
H     -2.057705   -1.962631   -0.619530
