21

C     -1.930169   -1.439416    0.160033
C     -2.649458   -0.267387    0.271238
C     -0.562190   -1.417393   -0.088201
C     -1.949127    0.920759    0.124945
C      0.123518   -0.223933   -0.231927
C     -0.593545    0.949151   -0.121146
C      1.585050   -0.215248   -0.496904
C      2.296357   -1.175438    0.385188
N      0.107271    2.178560   -0.268207
O      2.075836    1.075422   -0.328534
O      1.693077   -1.656869    1.375856
O      3.607803   -1.494095    0.063560
Na     0.000000    0.000000    0.000000
H     -2.413211   -2.408769    0.263379
H     -3.713820   -0.280520    0.464315
H     -0.047018   -2.367494   -0.166045
H     -2.493776    1.858101    0.208324
H      1.764634   -0.468251   -1.582470
H      0.293538    2.519888   -1.214922
H      0.392192    2.663452    0.601267
H      2.413039    1.249480    0.580249
