29

C      3.047382   -2.088506    0.210881
C     -0.583947   -0.689433    2.019709
C     -0.964347    2.778931   -1.077010
C      0.402324    2.961534   -1.167918
C     -1.514711    1.630884   -0.493347
C      1.248820    1.994323   -0.674217
C      2.167677   -1.024897   -0.321471
C     -0.623189    0.700635   -0.018334
C      0.753219    0.848175   -0.091406
C     -2.603203   -0.628012    0.663174
C     -1.139588   -0.541171    0.610616
N      1.598489   -0.172403    0.429467
O      1.956211   -0.954729   -1.686053
O     -3.344934    0.182028    1.291337
O     -3.258024   -1.649847   -0.005668
O     -0.655625   -1.606402   -0.144538
H      3.715062   -2.509575   -0.568740
H      2.416592   -2.929481    0.561477
H      3.682844   -1.760346    1.047882
H     -1.417470   -0.816313    2.750117
H      0.065910   -1.583114    2.108443
H     -0.008223    0.225404    2.310716
H     -1.595816    3.552485   -1.471796
H      0.829875    3.854447   -1.621877
H     -2.594113    1.528480   -0.444213
H      2.321253    2.096650   -0.724723
H      1.392844   -0.231447   -2.116323
H     -4.229294   -1.523864   -0.330185
H     -1.066018   -1.644437   -1.045998
