34

C      1.162937    4.044030    0.219840
C      3.494408   -2.588694    1.224092
C     -5.005952   -0.572638    0.342890
C      3.987016   -1.308126    1.198988
C      2.300067   -2.894323    0.605839
C     -3.962176   -0.194819    1.169814
C     -4.750429   -0.809312   -0.988428
C      3.288524   -0.298143    0.549006
C      1.612800   -1.891696   -0.035906
C     -2.674478   -0.050088    0.692502
C     -3.459192   -0.661395   -1.454063
C      2.116998   -0.600482   -0.056929
C     -2.415174   -0.285638   -0.636965
C      1.323499    0.404683   -0.764160
C     -1.052984   -0.137108   -1.163128
C      1.760698    1.793148   -0.582188
O     -0.819993   -0.351887   -2.371982
O      2.880274    2.230353   -0.905935
O      0.869942    2.694853   -0.008146
O     -0.030623    0.237427   -0.332560
H      2.238578    4.240904    0.383065
H      0.716964    4.681271   -0.574238
H      0.658205    4.328499    1.180447
H      4.052481   -3.366834    1.736417
H     -6.026460   -0.688627    0.715192
H      4.935247   -1.050648    1.686249
H      1.907939   -3.902368    0.623118
H     -4.161141   -0.011091    2.203894
H     -5.544394   -1.105848   -1.660004
H      3.734803    0.698677    0.568351
H      0.662210   -2.146046   -0.525291
H     -1.859640    0.243967    1.333894
H     -3.251641   -0.848324   -2.510735
H      1.310684    0.166322   -1.862939
