40

C     -2.115667   -4.198312    0.294370
C      5.932839    0.662065   -0.967716
C     -4.324233    2.550996   -1.158547
C      5.534755   -0.571904   -0.491496
C      5.037199    1.693209   -1.174709
C     -4.770435    1.248668   -1.149325
C     -3.174063    2.831424   -0.452712
C      4.212840   -0.793627   -0.211538
C      3.697485    1.465678   -0.890035
C     -4.101415    0.230729   -0.458674
C     -2.513645    1.830085    0.228298
C      1.857632    0.019003   -0.118247
C      1.568796    0.397794    1.325037
C      3.298845    0.226812   -0.412083
C     -2.955357    0.517720    0.242980
C      0.124479    0.192680    1.629810
C     -2.156346   -0.463932    1.015735
C     -2.575781   -1.851872    0.876663
O     -0.323372    0.448676    2.776542
O     -3.736384   -2.242674    1.147059
O     -1.690172   -2.845437    0.424984
O     -0.776116   -0.279536    0.686234
H     -3.200334   -4.258744    0.063387
H     -1.547735   -4.739653   -0.466720
H     -1.969595   -4.736527    1.259848
H      6.975158    0.818979   -1.182446
H     -4.880156    3.301614   -1.709857
H      6.252877   -1.347622   -0.342674
H      5.339749    2.651387   -1.543473
H     -5.670547    0.959567   -1.685194
H     -2.828014    3.856503   -0.463487
H      3.867614   -1.743104    0.160943
H      3.004586    2.277560   -1.054926
H     -4.461370   -0.777151   -0.464174
H     -1.604297    2.080811    0.779469
H      1.622909   -1.046066   -0.283060
H      1.269079    0.637554   -0.802870
H      1.896765    1.436431    1.509717
H      2.158262   -0.279500    1.959779
H     -2.276834   -0.160285    2.097327
