40

C     -2.077164   -3.553570    1.699233
C      5.011298   -1.841947   -1.389444
C     -4.774207    2.843465    0.272369
C      4.239655   -1.010160   -2.153125
C      5.074585   -1.599795   -0.045307
C     -3.463706    3.148657    0.037725
C     -5.137446    1.526006    0.410011
C      3.528016    0.059522   -1.608056
C      4.375655   -0.549774    0.489651
C     -2.504600    2.171357   -0.063362
C     -4.177129    0.516122    0.310702
C      2.889793    1.370096    0.458563
C      1.599909    1.039695    1.096230
C      3.578823    0.315284   -0.271627
C     -2.871820    0.825595    0.076513
C      0.530317    0.587463    0.206114
C     -1.801003   -0.198947   -0.034820
C     -2.214920   -1.560293    0.332635
O      0.573296    0.457035   -1.024635
O     -3.112038   -2.183665   -0.287357
O     -1.623351   -2.247749    1.410090
O     -0.712586    0.251994    0.791658
H     -3.190273   -3.560208    1.808905
H     -1.632461   -3.930382    2.624285
H     -1.835048   -4.193191    0.802702
H      5.576626   -2.679115   -1.770598
H     -5.555443    3.608899    0.356486
H      4.176331   -1.183455   -3.213262
H      5.681287   -2.239436    0.613049
H     -3.213084    4.216538   -0.066541
H     -6.164881    1.216009    0.598133
H      2.947487    0.693692   -2.232485
H      4.457690   -0.399810    1.555318
H     -1.467006    2.420602   -0.249579
H     -4.485723   -0.519915    0.426219
H      2.727928    2.295275   -0.160984
H      3.584955    1.729168    1.275877
H      1.221396    2.003866    1.559585
H      1.715819    0.372860    1.996837
H     -1.476976   -0.217789   -1.092792
