36

C     -4.879013    1.384217    0.101072
C     -3.596488    1.867334   -0.093807
C     -5.092803    0.035877    0.046765
C      2.775576    0.288052    2.666896
C     -2.544847    1.016729   -0.339075
C     -4.025937   -0.817058   -0.201258
C      1.698024   -0.090786    1.890312
C      3.925849    0.728147    2.039990
C     -2.755858   -0.362224   -0.396108
C      1.814601   -0.013782    0.504402
C      4.047861    0.806781    0.672178
C      2.971987    0.428402   -0.099814
C     -1.601805   -1.246096   -0.655676
C      3.059843    0.495056   -1.538479
C     -1.910353   -2.662145   -0.402024
C      0.686920   -0.409406   -0.328930
N      5.213679    1.253877   -0.003645
O      3.491739   -0.553637   -2.128864
O      2.728892    1.561736   -2.325433
O     -1.271138   -3.250044    0.535134
O     -2.844684   -3.413065   -1.107255
O      0.756163   -0.352990   -1.574524
O      5.979690    2.209937    0.636413
O      5.572011    0.841906   -1.110900
O     -0.511689   -0.865223    0.210680
H     -5.717123    2.068695    0.296842
H     -3.481310    2.947375   -0.040239
H     -6.073682   -0.400100    0.191591
H      2.724876    0.242648    3.756040
H     -1.544430    1.425102   -0.488877
H     -4.252335   -1.887472   -0.230136
H      0.780200   -0.441086    2.348787
H      4.787422    1.031206    2.643484
H     -1.257580   -1.092673   -1.724778
H      3.079436    1.652025   -3.279065
H     -2.733700   -4.427316   -1.073327
