33

C     -3.504907   -3.127659   -1.229607
C      4.182777   -0.381846    0.502520
C     -2.479283   -2.654365   -0.240038
C      3.362102   -1.366806   -0.271811
C     -0.776686    3.686096    1.709010
C     -0.900353    3.786344    0.328798
C     -0.430480    2.464673    2.293098
C     -0.670886    2.653204   -0.412165
C     -0.211500    1.363327    1.516305
C     -0.333331    1.458370    0.143608
C     -1.754787   -1.488390   -0.803787
C     -0.094293    0.259695   -0.692729
C      1.377451    0.039351   -0.735483
O     -2.046434   -1.048305   -1.957452
O      2.141640    0.912924   -1.220764
O      1.974903   -1.114269   -0.254040
O     -0.747200   -0.838073   -0.113398
H     -3.637109   -4.237185   -1.169177
H     -4.505818   -2.701486   -0.995865
H     -3.179681   -2.860437   -2.267456
H      4.281167   -0.668249    1.578554
H      3.794013    0.640247    0.387234
H      5.214397   -0.389351    0.058548
H     -1.724122   -3.472175   -0.100658
H     -2.909486   -2.394496    0.742926
H      3.760085   -1.397267   -1.323410
H      3.487625   -2.389626    0.187333
H     -0.946607    4.543291    2.320756
H     -1.165836    4.726138   -0.108154
H     -0.335889    2.395014    3.373159
H     -0.765396    2.720748   -1.498437
H      0.055766    0.415928    1.951683
H     -0.511844    0.464634   -1.699104
