36

C      4.674846   -0.162624    0.378969
C     -3.438855   -3.405608   -0.081915
C      4.198162   -1.039134   -0.745843
C     -3.889579   -1.973580    0.081429
C     -1.292513    4.026653    0.601191
C     -2.378269    3.174883    0.449458
C      0.009111    3.517257    0.614015
C      2.911697   -0.591963   -1.345593
C     -2.151523    1.820836    0.311915
C      0.186570    2.156511    0.473134
C     -0.898682    1.297889    0.320689
C      1.794333   -0.563603   -0.366624
C     -0.557704   -0.140605    0.180909
C     -1.664861   -0.990739   -0.244302
O      1.926513   -0.884774    0.841354
O     -1.588494   -1.618319   -1.329378
O     -2.814312   -1.137628    0.510072
O      0.524919   -0.168856   -0.764456
H      4.167989   -0.365236    1.338924
H      4.653978    0.880100    0.057473
H      5.757213   -0.426713    0.551488
H     -2.361423   -3.535123    0.108810
H     -3.966695   -4.036111    0.674265
H     -3.754129   -3.740100   -1.091231
H      4.168205   -2.113973   -0.417292
H      4.974398   -1.003570   -1.538218
H     -4.680364   -1.901491    0.849250
H     -4.240093   -1.536326   -0.885482
H     -1.463136    5.091190    0.709726
H     -3.374518    3.594544    0.442932
H      0.821272    4.218596    0.734600
H      2.633283   -1.311713   -2.140620
H      3.077030    0.391792   -1.827154
H     -2.992489    1.156626    0.193155
H      1.210993    1.792106    0.487260
H     -0.182875   -0.471194    1.189986
