37

C     -3.734004   -1.849725   -1.905611
C     -2.633802   -2.567715   -1.156035
C     -1.448208    4.353409    0.356899
C      5.121309   -1.715090   -0.430258
C     -2.496175    3.548302   -0.021340
C     -0.267210    3.853389    0.860813
C      4.120116   -1.273207   -1.259595
C      4.822895   -1.778887    0.915032
C     -2.391302    2.157020    0.097728
C     -0.156017    2.488158    0.981081
C      2.880741   -0.909725   -0.791334
C      3.590806   -1.421535    1.413081
C     -1.220948    1.658783    0.597415
C      2.620948   -0.986332    0.551448
C     -0.988775    0.212057    0.775950
C      1.304272   -0.600825    1.053857
C     -2.042936   -0.668766    0.289291
O      1.099157   -0.682752    2.288657
O     -3.244440   -0.618415    0.614275
O     -1.680047   -1.670367   -0.631913
O      0.289710   -0.156579    0.241942
H     -4.516850   -1.566698   -1.155735
H     -4.197182   -2.552053   -2.626550
H     -3.358110   -0.948106   -2.430387
H     -3.050277   -3.198107   -0.356111
H     -2.096569   -3.225049   -1.870382
H     -1.572256    5.436010    0.247130
H      6.107202   -2.008883   -0.764915
H     -3.432642    3.917110   -0.419397
H      0.543193    4.502930    1.151769
H      4.340244   -1.216149   -2.333363
H      5.563604   -2.118395    1.631135
H     -3.201256    1.512473   -0.196767
H      0.765893    2.084411    1.375207
H      2.094848   -0.557197   -1.488562
H      3.392834   -1.487969    2.502039
H     -0.928764    0.054471    1.893502
