37

C     -4.955056    0.804151   -0.440837
C     -4.578175   -1.498056    0.256284
C      4.761389   -1.630740   -1.807336
C      3.723804    1.052638    2.903120
C      0.916177   -0.092012   -1.075087
C      2.189140   -0.603089   -1.320837
C      1.691054    0.714515    0.998980
C     -3.936626   -0.330596   -0.461212
C      0.655307    0.575307    0.094577
C      3.204736   -0.445426   -0.391937
C      2.951439    0.225068    0.788668
C     -0.648833    1.162040    0.470859
C     -1.772464    0.762894   -0.364110
N     -2.756348    0.138337    0.184643
O     -0.884944    0.801084    1.794567
O     -1.868932    1.006241   -1.727619
O      4.494488   -0.948583   -0.611756
O      3.990509    0.368513    1.703514
H     -4.769632    1.394338    0.484713
H     -5.992963    0.432419   -0.435601
H     -4.759943    1.467151   -1.300535
H     -4.064869   -2.467450    0.005615
H     -4.659888   -1.340953    1.347293
H     -5.611184   -1.588493   -0.136176
H      3.969755   -2.386218   -2.059494
H      4.895832   -0.926108   -2.654827
H      5.729234   -2.195933   -1.721440
H      3.062746    0.447187    3.541632
H      4.687523    1.266161    3.425550
H      3.260411    2.059019    2.713490
H      0.116789   -0.209660   -1.792582
H      2.376001   -1.124300   -2.244659
H      1.522703    1.242668    1.947882
H     -3.772715   -0.627563   -1.495586
H     -0.498100    2.271291    0.427018
H     -0.482967   -0.068766    1.961122
H     -2.185399    0.292923   -2.369076
