43

C      3.276167    0.177812    2.293312
C     -4.032426    1.566485   -2.425847
C      6.271064   -0.831612    0.288337
C     -4.950497    1.998213    1.165216
C      5.659131   -1.529735   -0.731855
C     -4.312053    0.918743    1.767024
C      5.505966   -0.266645    1.286210
C     -4.834843    2.170756   -0.189045
C      4.289573   -1.677827   -0.778815
C     -3.584797    0.060794    0.975051
C      0.060707   -0.306342    0.578308
C      4.133600   -0.409934    1.247239
C     -4.102459    1.302983   -0.971659
C      3.480662   -1.113251    0.224479
C     -3.454683    0.214448   -0.387536
C     -0.637382    0.322819   -0.586497
C      1.002197   -1.392363    0.187210
C     -1.425840   -0.689410   -1.312082
N      2.168939   -1.233905    0.213953
N     -2.704772   -0.682351   -1.177110
O     -1.462584    1.376390   -0.182761
O      0.417921   -2.614475   -0.214714
O     -0.909044   -1.669131   -2.143278
H      2.783269    1.109986    1.976667
H      2.523972   -0.576105    2.608884
H      3.885757    0.393446    3.213239
H     -5.039506    1.976649   -2.728972
H     -3.299572    2.329022   -2.697743
H     -3.915766    0.615579   -2.974088
H      7.333955   -0.747910    0.275486
H     -5.525389    2.678179    1.784215
H      6.229269   -1.983316   -1.526890
H     -4.411146    0.793847    2.835687
H      5.976417    0.293562    2.107349
H     -5.328282    3.005051   -0.654389
H      3.776283   -2.217414   -1.561903
H     -3.102575   -0.766589    1.475587
H      0.600394    0.480988    1.145180
H     -0.715735   -0.756504    1.242927
H      0.115682    0.792865   -1.297770
H     -1.341450    2.143296   -0.759785
H      1.003776   -3.371355   -0.578542
H     -1.403900   -1.885743   -3.010280
