35

C      4.568773   -0.407324   -0.082093
C     -1.545394   -0.802775   -1.750424
C     -1.524227    1.104952    1.588602
C      3.057595   -0.391565    0.181660
C      2.602506    1.010386   -0.104050
C      1.116465    1.172384    0.148028
C      0.364091    0.270326   -0.720743
C     -1.115632    0.253458   -0.719547
C     -1.936631   -1.279720    1.101475
C     -3.321291    0.389228    0.178778
C     -1.882842    0.077341    0.510818
O     -1.581230   -1.431833    2.296556
O     -2.348594   -2.418494    0.451331
O     -3.898170    1.430324    0.608980
O     -4.106558   -0.432853   -0.613018
H      4.729826    0.243556   -0.965815
H      4.926721   -1.433030   -0.303572
H      5.085026    0.066583    0.771532
H     -0.822015   -0.597316   -2.617934
H     -2.521325   -0.622063   -2.184335
H     -1.289503   -1.813349   -1.449888
H     -1.103351    1.997196    1.111358
H     -2.474159    1.491168    2.081342
H     -0.966200    0.674882    2.426514
H      2.599932   -1.143364   -0.509698
H      2.867223   -0.732187    1.206780
H      2.841901    1.217537   -1.170060
H      3.184542    1.707020    0.567637
H      1.017653    0.970586    1.237422
H      0.936212    2.265192   -0.085557
H      0.690348   -0.785300   -0.441670
H      0.741622    0.378586   -1.768224
H     -1.456436    1.226766   -1.189221
H     -2.320924   -3.347519    0.866500
H     -5.115953   -0.308776   -0.659462
