44

C      4.892414   -1.226746    1.260689
C     -2.937260   -3.915706   -0.348498
C     -2.266981    3.905693   -0.106367
C      1.669574    2.114647   -0.000028
C     -0.450731   -0.296305   -1.869992
C      3.557447   -1.105240    0.510912
C     -3.511592   -2.567250    0.019691
C     -3.115906    2.660242   -0.124971
C      3.178807    0.332335    0.551671
C      0.794947   -0.266934    0.287900
C      1.869439    0.637218   -0.151595
C     -1.397270   -1.315869    0.083804
C     -1.274538    1.042641    0.078867
C     -0.533427   -0.133517   -0.359625
O     -0.899800   -2.138870    0.880793
O     -0.922594    1.690264    1.084109
O     -2.677963   -1.496781   -0.358792
O     -2.416257    1.522856   -0.575467
H      5.059833   -2.254204    1.613461
H      4.853374   -0.503322    2.117945
H      5.734875   -0.880241    0.627773
H     -2.175575   -3.784375   -1.129937
H     -3.732595   -4.569776   -0.806306
H     -2.539481   -4.403472    0.563399
H     -1.693673    3.992983    0.861281
H     -1.640300    4.035694   -0.987873
H     -2.980937    4.778783   -0.084957
H      0.905807    2.566572   -0.626902
H      1.646854    2.379060    1.073727
H      2.644546    2.577268   -0.398967
H     -1.456328   -0.612598   -2.216241
H      0.255181   -1.091906   -2.107041
H     -0.233553    0.659971   -2.379451
H      3.760215   -1.455194   -0.519388
H      2.861536   -1.767635    1.069477
H     -3.787116   -2.525589    1.099651
H     -4.464956   -2.454185   -0.539121
H     -3.920437    2.847335   -0.893863
H     -3.573063    2.541076    0.865014
H      3.119217    0.674895    1.604468
H      3.978092    0.920026    0.072664
H      0.607923   -0.194988    1.406587
H      1.135363   -1.313324    0.089242
H      2.076888    0.394466   -1.237742
