44

C      4.835549   -0.269381    0.644269
C     -1.417489    4.793383    0.850379
C     -2.827954   -3.731261    0.593460
C      1.423354   -1.678592   -1.588692
C     -0.256935    0.007105    1.443958
C      3.844227   -0.490100   -0.506429
C     -2.202262    3.576170    0.447541
C     -3.569058   -2.418026    0.464813
C      2.471858   -0.070503   -0.035130
C      0.218074    0.466715   -0.969267
C      1.478862   -0.261613   -1.166234
C     -1.761099    1.228092    0.059027
C     -1.605326   -1.110693   -0.228629
C     -0.776692    0.049596    0.015659
O     -2.966391    1.089666   -0.208704
O     -1.456842   -1.958106   -1.119039
O     -1.302689    2.483296    0.404744
O     -2.704535   -1.309605    0.631546
H      4.833774   -1.130504    1.323762
H      5.845048   -0.216280    0.174077
H      4.670821    0.691440    1.145332
H     -0.900901    5.198008   -0.032177
H     -0.650425    4.488517    1.591045
H     -2.125136    5.506653    1.315918
H     -3.471085   -4.424644    1.171408
H     -2.613905   -4.149255   -0.410561
H     -1.894681   -3.591971    1.181564
H      2.454755   -1.939441   -1.992430
H      0.799386   -1.744239   -2.528506
H      1.202279   -2.427457   -0.839015
H      0.041277   -1.048069    1.716907
H      0.522013    0.746050    1.649978
H     -1.107636    0.223763    2.122925
H      4.136579    0.078649   -1.393320
H      3.921585   -1.579009   -0.720199
H     -2.609703    3.691059   -0.580096
H     -2.971314    3.362632    1.198979
H     -4.372914   -2.311139    1.223274
H     -4.072165   -2.398681   -0.528989
H      2.241538   -0.718165    0.840051
H      2.549353    0.999536    0.248781
H      0.459714    1.538903   -0.796287
H     -0.303826    0.480267   -1.975492
H      1.990914    0.277232   -2.033022
