32

C      3.740661    0.059092    1.282342
C     -1.865738   -1.187407   -1.907240
C      3.436516    1.128323    0.277873
C      2.455130    0.622715   -0.783049
C      1.145364    0.201875   -0.078226
C      0.152295   -0.295608   -1.035832
C     -1.154536   -0.794722   -0.567814
C     -2.105306    0.154080    0.055894
C     -1.773603    0.688586    1.368600
C     -3.395004   -0.568928    0.211125
O     -0.897813    0.239318    2.120065
O     -2.491319    1.797477    1.843463
O     -4.454479   -0.187766   -0.325042
O     -3.426441   -1.713609    0.982070
H      4.681105    0.355152    1.807493
H      3.934367   -0.917513    0.788545
H      2.955605   -0.016838    2.064093
H     -1.756866   -0.329461   -2.602989
H     -1.425405   -2.095585   -2.313065
H     -2.951102   -1.309263   -1.719834
H      2.864436    1.932143    0.827579
H      4.297617    1.617235   -0.165422
H      2.273150    1.417384   -1.521500
H      2.829850   -0.283197   -1.290347
H      0.754235    1.195207    0.317698
H      1.421364   -0.402523    0.760888
H      0.635932   -1.168687   -1.575511
H     -0.050070    0.419848   -1.885438
H     -1.118878   -1.738162    0.004723
H     -2.328734    1.001096   -0.649080
H     -2.118217    2.426741    2.538446
H     -4.264118   -2.247002    1.169490
