60

C     -1.663271    3.891040   -0.680722
C      6.096416    0.515376   -0.570567
C     -7.307757   -1.786279   -1.653800
C     -4.729317   -0.270970    3.045401
C     -2.042902    2.531555   -0.139088
C      0.730805   -1.714462   -2.641059
C      2.078928   -1.745907   -2.024534
C      2.395216    0.598965    1.531917
C     -3.345116   -0.530629   -1.701810
C      1.154899    0.367010    0.979552
C     -4.655448   -0.943750   -1.669552
C     -0.324904   -1.852499   -1.555728
C      3.382948   -0.671560   -0.209119
C     -3.368715   -0.194820    0.619402
C      5.994598   -0.211712    0.774710
C      2.162085   -0.921082   -0.784952
C      3.529151    0.071340    0.927693
C     -2.658208   -0.143790   -0.566330
C      1.025939   -0.386918   -0.172455
C     -5.355995   -0.991713   -0.484124
C     -4.682762   -0.606533    0.668209
C      4.857587    0.315474    1.560966
C     -1.274871    0.292618   -0.566202
C      7.162878    0.959562    3.145612
N     -1.041960    1.539753   -0.364020
N      4.899053    0.917942    2.669785
N      5.969248    1.245021    3.450290
N     -0.246511   -0.641120   -0.775477
O      8.185836    1.335496    3.997535
O     -6.690872   -1.409832   -0.433827
O     -5.365541   -0.647285    1.861301
S      7.546182    0.083776    1.653285
H     -1.024553    4.464649    0.050285
H     -1.142056    3.828462   -1.664555
H     -2.559316    4.525673   -0.845486
H      5.193160    1.067467   -0.818571
H      6.915578    1.281105   -0.528482
H      6.348580   -0.207484   -1.366006
H     -6.774630   -2.644528   -2.120782
H     -8.375701   -2.008453   -1.533940
H     -7.255783   -0.940118   -2.393609
H     -3.950616   -1.049998    3.270974
H     -5.478050   -0.238301    3.847370
H     -4.219977    0.711650    2.988837
H     -3.039063    2.276697   -0.548795
H     -2.186969    2.635510    0.968303
H      0.584086   -2.579550   -3.323719
H      0.622912   -0.746032   -3.197010
H      2.824707   -1.396833   -2.767200
H      2.378802   -2.784314   -1.762946
H      2.450869    1.186742    2.422028
H     -2.852050   -0.506541   -2.656948
H      0.239689    0.753720    1.418315
H     -5.204839   -1.251638   -2.566129
H      0.021037   -2.699733   -0.913881
H     -1.306629   -2.130246   -1.917186
H      4.264376   -1.096492   -0.675833
H     -2.832038    0.110645    1.528908
H      5.900958   -1.311976    0.621798
H      8.039894    1.755848    4.910203
