35

C      4.188678    0.150123    0.569223
C     -0.385071    0.790372    1.586188
C     -2.415391   -0.202030   -1.473804
C      3.919819   -0.105855   -0.910358
C      2.577673   -0.840802   -1.027490
C      1.546013    0.083821   -0.417305
C      0.157081   -0.523329   -0.466362
C     -0.775199    0.506093    0.176152
C     -2.504848   -1.149883    0.827556
C     -3.148242    1.111767    0.398496
C     -2.179242    0.041287    0.004325
O     -1.670280   -1.742905    1.558891
O     -3.792353   -1.669115    0.816873
O     -2.796965    2.207971    0.863796
O     -4.494427    0.817257    0.216037
H      5.301870    0.214957    0.682626
H      3.826927   -0.678153    1.185023
H      3.725387    1.122295    0.852125
H     -1.225046    0.730811    2.309686
H      0.353447    0.007634    1.929916
H      0.142825    1.761692    1.723042
H     -2.066015   -1.195518   -1.798825
H     -3.474563   -0.008276   -1.725056
H     -1.793522    0.549985   -2.019697
H      4.728227   -0.696268   -1.371748
H      3.855494    0.893725   -1.386956
H      2.357307   -1.030787   -2.091309
H      2.611152   -1.763358   -0.439676
H      1.850004    0.363778    0.590185
H      1.516398    0.994201   -1.059470
H     -0.087347   -0.688542   -1.515950
H      0.146190   -1.455246    0.112902
H     -0.668318    1.459031   -0.399285
H     -4.144729   -2.312888    1.517899
H     -5.182936    1.555900    0.182352
