32

C      3.754604    0.736750   -0.192614
C     -0.497581    1.593395    0.270185
C      3.452662   -0.739324   -0.096839
C      1.964834   -0.991612    0.134633
C      1.229265   -0.397515   -1.036166
C     -0.262337   -0.573417   -0.942302
C     -0.810744    0.088667    0.299919
C     -2.287504   -0.031333    0.417902
C     -2.826693   -1.385124    0.469861
C     -3.012039    0.770314   -0.610578
O     -2.179086   -2.461056    0.441379
O     -4.215725   -1.514857    0.561859
O     -3.762122    0.162623   -1.415869
O     -2.903380    2.144052   -0.726073
H      3.078541    1.357230    0.429976
H      3.676697    1.114071   -1.233791
H      4.812904    0.880966    0.140026
H      0.550119    1.776934    0.580356
H     -1.235137    2.087927    0.906979
H     -0.577726    1.953855   -0.774793
H      4.021813   -1.125566    0.796943
H      3.807016   -1.229310   -1.019565
H      1.820180   -2.070332    0.243264
H      1.708924   -0.412770    1.053158
H      1.565159   -0.959982   -1.946494
H      1.551593    0.634488   -1.167084
H     -0.711300   -0.130215   -1.843176
H     -0.465862   -1.639795   -0.893471
H     -0.325575   -0.345202    1.173219
H     -2.559743    0.450575    1.406007
H     -4.696914   -2.391169    0.432065
H     -3.664843    2.646733   -1.165961
