45

C      5.990883    2.726506   -0.745033
C     -2.376530   -4.168695   -0.183189
C     -5.578339    4.047703    0.169053
C     -5.364156    2.745974    0.076284
C     -4.414488   -0.162029   -0.071474
C     -3.925395   -1.455742   -0.128855
C     -4.456089    4.869080    0.386222
C      5.562221    0.539527    0.342569
C     -2.238610    0.676831    0.280060
C      0.961800   -0.729810    0.554133
C      3.043963   -2.092778    0.691369
C      5.439927    1.344592   -0.686537
C     -3.586546    0.912518    0.131796
C      1.731990   -1.993303    0.535050
C     -1.719629   -0.610386    0.227044
C     -0.432106   -1.147734    0.339944
C     -2.563281   -1.656072    0.024451
C     -4.096053    2.239703    0.189678
C      4.890356   -0.725218    0.019842
C     -0.568645   -2.507840    0.197583
C      0.769326   -3.064358    0.315103
C      4.691690    0.664556   -1.728807
N     -1.880312   -2.817162    0.003733
O      1.095085   -4.278578    0.244460
O      4.391497    1.139742   -2.848074
O      3.767016   -0.934129    0.889138
O      4.368725   -0.591273   -1.276738
S     -3.112941    3.711070    0.449108
H      6.824941    2.851142   -0.005828
H      5.235559    3.491584   -0.464203
H      6.399810    2.876765   -1.758525
H     -2.090984   -4.510756   -1.197553
H     -3.492957   -4.099350   -0.091829
H     -1.949870   -4.874704    0.553586
H     -6.606860    4.487192    0.079742
H     -6.185620    1.987027   -0.097188
H     -5.465887   -0.011351   -0.190165
H     -4.601926   -2.256836   -0.287865
H     -4.421742    6.002029    0.494803
H      6.061615    0.750953    1.265410
H     -1.570075    1.492425    0.439412
H      1.089374   -0.172952    1.513119
H      1.268008   -0.080703   -0.292219
H      3.532068   -3.028164    0.666890
H      5.583190   -1.586999    0.105318
