30

C     -3.078487    0.141989    0.907094
C     -2.850785    0.543521   -0.532716
C     -1.896336   -0.718460    1.303635
C      2.332060    0.623156   -0.089556
C      3.713235    0.497602    0.001196
C     -0.477189    0.227367   -1.267125
C      2.224494   -1.706758    0.116513
C      1.549672   -0.511292   -0.031041
C     -1.482998    1.204191   -0.662379
C      0.081084   -0.531886   -0.108495
C     -0.612651    0.062777    1.078805
C      4.297159   -0.721320    0.145735
Cl     6.037871   -0.823902    0.255027
N      3.553172   -1.821396    0.203189
N     -0.949440    1.395078    0.645969
H     -4.020343   -0.387331    1.049436
H     -3.020394    1.060941    1.550940
H     -3.658009    1.231040   -0.872564
H     -2.828778   -0.399784   -1.131919
H     -1.946862   -1.623118    0.639361
H     -1.977937   -1.101656    2.336647
H      1.856488    1.576155   -0.206366
H      4.286162    1.426487   -0.050490
H     -1.039221   -0.465258   -1.944579
H      0.279397    0.772071   -1.852810
H      1.657356   -2.643830    0.169336
H     -1.566126    2.124083   -1.269640
H     -0.246177   -1.601195   -0.162513
H      0.019636    0.064514    1.990638
H     -0.236052    2.106217    0.775127
