45

C     -7.878402   -0.339266   -0.353143
C      1.864916    3.969583   -1.101941
C      5.735062   -3.681973    1.586456
C      4.774834   -2.838735    1.240275
C      4.881873    0.819038    0.138082
C      4.052186    1.847697   -0.252264
C      7.057713   -3.308514    1.596564
C     -5.509611    0.027966    0.349624
C      2.978290   -0.549107    0.376113
C     -0.485447   -0.153023   -0.068153
C     -2.838565    0.555611   -0.503647
C     -6.527695   -0.778981    0.144488
C      4.358889   -0.414703    0.464321
C     -1.531576    0.824427   -0.463177
C      2.150363    0.484849   -0.015679
C      0.778863    0.614069   -0.183195
C      2.682584    1.711355   -0.338855
C      5.155038   -1.522955    0.875739
C     -4.368255   -0.768017    0.833487
C      0.539147    1.907054   -0.598755
C     -0.895066    2.078623   -0.785018
C     -6.126462   -2.136164    0.475428
N      1.707458    2.580721   -0.694363
O     -1.500810    3.129064   -1.161052
O     -6.873201   -3.171101    0.391113
O     -3.345753   -0.690952   -0.172036
O     -4.817809   -2.073792    0.884655
S      6.864911   -1.551627    1.044326
H     -7.817306    0.601896   -0.918054
H     -8.525117   -0.166302    0.544271
H     -8.256863   -1.174336   -0.968929
H      2.935972    4.162413   -1.328167
H      1.317439    4.129506   -2.065347
H      1.567204    4.672508   -0.314700
H      5.434962   -4.751895    1.883726
H      3.659936   -3.097524    1.214724
H      5.969263    0.950293    0.199832
H      4.459747    2.809842   -0.506713
H      7.978937   -3.769082    1.822739
H     -5.481377    1.116080    0.196210
H      2.535466   -1.503985    0.625054
H     -0.662402   -0.521318    0.961665
H     -0.521908   -0.994122   -0.809910
H     -3.503337    1.353725   -0.808482
H     -3.974093   -0.388845    1.805182
