52

C      4.373334   -1.139141    1.642650
C      3.004705    3.639949   -1.431779
C     -0.920605    2.501665    2.978387
C     -4.722739    1.407009   -1.783415
C      4.158704   -1.563195    0.227489
C      3.259546   -0.629522   -0.551043
C     -3.035652   -3.551404   -0.734186
C      1.883075   -0.531617    0.078151
C     -2.657776   -2.215522   -1.166271
C     -2.807433   -3.948745    0.498587
C      2.315692    2.351086   -1.686784
C     -0.784996    2.181495    1.535634
C     -3.395108    0.779871   -1.860835
C      1.092203    0.427089   -0.794680
C     -1.447157   -1.630867   -0.408449
C     -2.165956   -3.006559    1.401086
C     -0.320262    0.651655   -0.313712
C     -1.341592   -0.240794   -0.917622
O      2.216550    1.863298   -2.838524
O     -0.996956    3.111456    0.717823
O     -2.904617    0.601644   -3.011650
O     -1.945941   -3.373649    2.580784
O      1.776518    1.694517   -0.588064
O     -0.444536    0.941064    1.036997
O     -2.652223    0.375713   -0.786745
O     -1.805460   -1.717925    0.954228
H      3.582894   -1.489648    2.338529
H      5.315709   -1.648526    1.997211
H      4.559337   -0.066703    1.721401
H      3.977218    3.405475   -0.921900
H      3.265842    4.161422   -2.382507
H      2.367223    4.238400   -0.773131
H     -0.355592    3.456434    3.171272
H     -1.998433    2.769746    3.133158
H     -0.587077    1.685453    3.634773
H     -5.498639    0.594761   -1.778430
H     -4.806297    1.902155   -0.788121
H     -4.865708    2.098262   -2.627814
H      3.766734   -2.592136    0.155520
H      5.140765   -1.562410   -0.286695
H      3.138625   -1.067576   -1.563088
H      3.706060    0.364982   -0.674296
H     -3.508801   -4.216233   -1.443553
H      1.948461   -0.151102    1.108905
H      1.409312   -1.513828    0.113193
H     -3.506723   -1.508024   -0.970124
H     -2.417369   -2.124656   -2.236794
H     -3.102154   -4.944040    0.783888
H      1.087335    0.134395   -1.842527
H     -0.615975   -2.305513   -0.611072
H     -0.568057    1.676689   -0.824791
H     -1.166010   -0.276349   -2.010263
