53

C     -4.109757    0.987647    0.686368
C     -3.825992   -0.244589   -1.361651
C      4.895076    0.686320    1.233527
C     -1.644918    3.105074   -0.301057
C     -0.102080   -1.998131   -1.874838
C      1.561756    1.237296    0.622131
C      2.543034   -1.539623   -0.812306
C      2.812791    1.194316   -0.196725
C      0.523221    2.062285   -0.098009
C      3.630673   -1.064768    0.048400
C     -1.033299    1.757456    1.771347
C     -1.575482    0.357605    1.734837
C      1.696929   -2.608198   -0.108937
C     -1.954448   -1.648691    0.441836
C     -3.334426    0.247805   -0.052702
C      3.765780    0.218290    0.343602
C     -0.660446    2.284611    0.454869
C     -1.974152   -0.115952    0.381991
C     -0.585293   -2.197770    0.611843
C      0.233636   -2.408137   -0.472487
O     -0.522579   -3.560771    0.018837
H     -5.103291    1.241081    0.349532
H     -3.780933    1.360621    1.639543
H     -4.282716   -1.257866   -1.158377
H     -4.664327    0.367437   -1.756794
H     -3.023294   -0.398584   -2.100455
H      5.565318    1.298950    0.586599
H      4.483056    1.343337    2.019351
H      5.483806   -0.151107    1.613743
H     -1.105903    4.049590   -0.578616
H     -2.514214    3.406439    0.286384
H     -1.926385    2.635187   -1.265683
H      0.039431   -0.932867   -2.047359
H      0.484916   -2.560552   -2.630836
H     -1.170236   -2.229253   -2.089202
H      1.177455    0.229272    0.746568
H      1.812943    1.702380    1.599916
H      1.926177   -0.783478   -1.288154
H      3.034819   -2.104526   -1.660155
H      2.635770    1.110612   -1.295029
H      3.270465    2.225831   -0.094755
H      0.737267    2.480520   -1.075137
H      4.323631   -1.798682    0.437248
H     -0.095931    1.773719    2.399081
H     -1.745195    2.389055    2.335980
H     -2.383921    0.187160    2.473715
H     -0.753082   -0.340519    2.092511
H      2.050772   -3.619301   -0.310986
H      1.795518   -2.424735    0.980413
H     -2.509035   -2.008278   -0.425515
H     -2.575026   -1.902306    1.345797
H     -1.287237    0.228572   -0.420313
H     -0.240642   -2.269784    1.668373
