62

C      8.016063   -2.225090    0.833627
C      6.556269   -1.718637    0.573295
C      6.595445   -0.273209    0.901197
C      5.397696    0.559921    0.877138
C      4.597471    0.730850   -0.340413
C      3.898264   -0.489203   -0.844439
C      3.114474   -0.094333   -2.093325
C      2.099631    0.957554   -1.849706
C      1.088375    0.464591   -0.823593
C      0.043996    1.525340   -0.573149
C     -0.933099    1.053546    0.452661
C     -1.645172   -0.191748    0.014673
C     -2.403349   -0.008084   -1.270564
C     -3.438646    1.002586   -1.335192
C     -6.968085   -0.174093   -0.191204
C     -4.712981    0.947288   -0.577293
C     -5.632391   -0.162134   -0.862877
C     -7.073001   -0.206647    1.242147
C     -4.477953    1.244011    0.871962
C     -5.052057   -1.516347   -0.620463
O     -7.344564    0.846452    1.920046
O     -6.889226   -1.376010    1.969744
O     -4.452998    0.408817    1.792733
O     -4.253169    2.576482    1.288186
O     -4.444008   -1.810741    0.424014
O     -5.165842   -2.540490   -1.559352
H      8.647148   -1.813563    0.028530
H      8.327788   -1.953130    1.850763
H      7.973004   -3.308502    0.727246
H      6.481759   -1.942253   -0.535492
H      5.874489   -2.290772    1.192405
H      6.994743   -0.230980    1.979688
H      7.416720    0.199805    0.266146
H      5.683177    1.621350    1.223024
H      4.671692    0.282099    1.723941
H      5.226546    1.181861   -1.182924
H      3.835188    1.562200   -0.159230
H      3.206443   -0.846224   -0.034466
H      4.527073   -1.351538   -1.076212
H      3.888875    0.322787   -2.797060
H      2.679247   -0.958115   -2.610018
H      2.501485    1.945371   -1.615640
H      1.502360    1.086128   -2.792234
H      1.520549    0.210001    0.143259
H      0.641157   -0.440551   -1.281024
H     -0.478281    1.774190   -1.543968
H      0.558084    2.463824   -0.227794
H     -0.440301    0.812304    1.427877
H     -1.633987    1.892779    0.655148
H     -0.879999   -1.001405   -0.226312
H     -2.204907   -0.634941    0.849699
H     -1.597340    0.195406   -2.050287
H     -2.735418   -1.042891   -1.557650
H     -3.711913    1.171382   -2.440346
H     -2.999982    2.039341   -1.090512
H     -7.510271    0.740220   -0.626369
H     -7.545520   -1.029761   -0.672985
H     -5.276414    1.894154   -0.928742
H     -5.920199   -0.147112   -1.984487
H     -7.326146   -1.464130    2.877633
H     -3.959073    2.793833    2.226671
H     -4.458916   -3.263840   -1.547258
