36

C     -2.496453    2.085429   -1.140697
C      3.044101    1.689802    0.905391
C     -2.146190   -1.712126   -0.240965
C     -1.575323    0.324229    1.919443
C     -2.471971    1.116216    1.068452
C     -0.796357   -0.642241    1.469230
C      0.468386    1.050086   -0.783779
C      0.246869   -1.900237   -0.412758
C     -1.955894    1.197157   -0.314842
C      2.650272    0.355042    0.325981
C     -0.851310    0.317014   -0.812910
C      1.570528    0.124406   -0.373722
C      3.391380   -0.885914    0.474320
C     -0.833044   -0.947219   -0.007411
C      1.561601   -1.289995   -0.769891
O      4.502638   -1.034624    1.100984
O      1.734110   -1.413173   -2.167202
O      2.666469   -1.847539   -0.184436
H     -2.154409    2.191246   -2.179480
H     -3.286084    2.732806   -0.827101
H      4.136289    1.732715    1.101372
H      2.471501    1.874327    1.848818
H      2.816066    2.499351    0.194106
H     -2.009700   -2.328527   -1.172808
H     -2.266948   -2.413845    0.588527
H     -2.984362   -1.047504   -0.432771
H     -1.564611    0.563999    2.994502
H     -3.510577    0.710183    1.113807
H     -2.563599    2.157357    1.498013
H     -0.168843   -1.174804    2.157823
H      0.374105    1.899351   -0.091140
H      0.744227    1.449722   -1.773954
H     -0.120448   -2.469241   -1.291680
H      0.389507   -2.684914    0.375396
H     -1.096935    0.054413   -1.855738
H      2.085011   -2.332946   -2.302882
