65

C      7.798749   -2.289576    1.367550
C     -2.316086   -2.414155   -1.565922
C      7.598952   -1.755152   -0.019882
C      6.778981   -0.468151   -0.012798
C      5.434801   -0.744816    0.590730
C      4.613923    0.489838    0.628846
C      4.320338    1.138211   -0.683551
C      3.594325    0.277033   -1.641480
C      2.303817   -0.283227   -1.242634
C      1.141182    0.538094   -0.904662
C      1.167664    1.459536    0.242551
C     -0.171333    2.197930    0.406274
C     -1.324867    1.230168    0.642075
C     -2.554904    2.064945    0.807674
C     -3.839234    1.376434    1.090920
C     -6.669351    0.938901    0.676876
C     -4.326624    0.387295    0.085617
C     -5.671558   -0.160862    0.552142
C     -8.012116    0.402537    1.101097
C     -6.128705   -1.267461   -0.317691
C     -3.407305   -0.802593   -0.064302
O     -8.106799   -0.822370    1.281962
O     -9.097192    1.232088    1.283304
O     -6.249794   -2.446357    0.103492
O     -6.451026   -1.058756   -1.658474
O     -2.895016   -1.315413    0.940359
O     -3.159379   -1.297664   -1.309744
H      6.954395   -2.927901    1.711215
H      8.697718   -2.943162    1.346116
H      7.919763   -1.471618    2.101005
H     -2.818075   -3.374453   -1.347007
H     -1.335246   -2.323307   -1.072793
H     -2.126858   -2.413462   -2.666715
H      7.058761   -2.484600   -0.659242
H      8.575659   -1.531418   -0.477449
H      7.344546    0.300244    0.509945
H      6.633343   -0.181339   -1.076269
H      5.576316   -1.062617    1.666523
H      4.928395   -1.612344    0.120454
H      5.205789    1.248247    1.224568
H      3.705074    0.323259    1.246963
H      3.946257    2.151759   -0.518498
H      5.361033    1.345115   -1.130497
H      4.324504   -0.568479   -1.898615
H      3.555008    0.828415   -2.626518
H      2.410161   -1.063722   -0.418421
H      1.955240   -0.963956   -2.107983
H      0.298242   -0.208873   -0.677948
H      0.729540    1.053226   -1.821179
H      1.902576    2.279894    0.227664
H      1.378656    0.905648    1.207034
H     -0.364544    2.722663   -0.539877
H     -0.095102    2.903529    1.232449
H     -1.449798    0.567156   -0.238683
H     -1.124894    0.625231    1.534223
H     -2.399129    2.853930    1.615204
H     -2.702865    2.722562   -0.111611
H     -3.892044    0.965550    2.135598
H     -4.644359    2.188349    1.115127
H     -6.722283    1.590211   -0.196975
H     -6.342967    1.592264    1.548629
H     -4.408417    0.886793   -0.895487
H     -5.541007   -0.590972    1.585977
H    -10.031182    0.883616    1.035809
H     -6.833652   -1.821896   -2.216048
