29

C      4.564808   -0.947151    0.156417
C     -3.646746   -0.801791    0.115112
C     -2.697424   -1.587686   -0.776739
C      3.028722    0.938429    0.597604
C      2.112177   -1.130106   -0.148193
C      3.185471   -0.363056    0.202164
C     -3.134015    0.615065   -0.124759
C      1.737290    1.504809    0.646605
C     -1.397714   -0.932800   -0.439040
C      0.812046   -0.620817   -0.118106
C     -1.645759    0.357676   -0.056267
C      0.675232    0.704998    0.287030
C     -0.620895    1.181133    0.307037
O     -3.528713    1.492075    0.864044
O      1.616391    2.795774    1.042323
O     -0.887126    2.364330    0.654078
O     -0.183538   -1.387016   -0.460375
H      5.156209   -0.435115    0.926846
H      4.461121   -2.029240    0.396082
H      4.999452   -0.842170   -0.861127
H     -4.690409   -0.926948   -0.154600
H     -3.394341   -1.073390    1.159258
H     -2.912396   -1.328832   -1.842689
H     -2.709254   -2.656785   -0.573413
H      3.865137    1.553139    0.876005
H      2.246839   -2.157429   -0.459263
H     -3.390587    0.913626   -1.139834
H     -4.504465    1.419922    0.985860
H      0.882488    3.379357    1.152848
