68

C     -7.590319    1.472601   -0.446933
C     -1.312861   -4.082957   -0.817591
C     -0.588186    3.138116    0.034726
C     -2.008327    2.729251   -0.248058
C     -7.093347   -1.103733    1.479182
C     -5.797415   -1.845055    1.225533
C     -2.834355   -0.262299    0.291194
C     -5.740555   -0.115757   -0.559134
C      0.645799    0.478664    0.223054
C     -6.410079    0.895819    0.311632
C     -1.828725   -2.747419   -0.431162
C     -1.250445    1.941763    0.746105
C      1.217490   -0.724727   -0.133070
C     -1.465786   -0.424598    0.146292
C     -3.686036   -1.331162    0.076824
C     -0.988220   -1.678303   -0.215886
C     -3.199835   -2.566852   -0.281314
C      0.375180   -1.795032   -0.348514
C      6.885670    0.764995   -1.529613
C      7.410790    1.201861   -0.166658
C      5.393411    0.688130   -1.425412
C      6.940491    0.151209    0.826010
C      7.487585    0.421775    2.181862
C      2.653214   -0.897808   -0.285766
C      4.924785   -0.161964   -0.265417
F     -4.025255   -3.619596   -0.493484
N     -6.828486    0.320153    1.548929
N     -5.064890   -1.094523    0.241994
N     -0.679342    0.643371    0.365309
O      0.828021   -2.935249   -0.679285
O      7.191832    1.733563   -2.489725
O      8.797307    1.284229   -0.154895
O      4.803821    0.156944   -2.575658
O      6.765710    0.627740    3.185460
O      8.866535    0.449930    2.356033
O      3.072898   -2.035846   -0.612572
O      5.558900    0.178285    0.924469
O      3.553539    0.140006   -0.084081
H     -8.476655    0.831351   -0.425829
H     -7.258267    1.572057   -1.514508
H     -7.782140    2.510773   -0.092366
H     -2.188069   -4.792050   -0.924280
H     -0.687930   -4.561861   -0.031785
H     -0.821685   -4.100875   -1.811184
H      0.169783    2.906152   -0.732158
H     -0.478722    4.061236    0.649459
H     -2.823680    3.368504    0.155279
H     -2.220211    2.295967   -1.241144
H     -7.500136   -1.455658    2.446459
H     -7.759344   -1.299197    0.624273
H     -5.254794   -1.851820    2.205724
H     -6.023094   -2.875101    0.890696
H     -3.211756    0.723095    0.575946
H     -5.058476    0.429262   -1.245439
H     -6.534532   -0.567718   -1.206044
H      1.298597    1.320089    0.393137
H     -5.743374    1.763972    0.540642
H     -1.436373    2.079653    1.828670
H      7.304432   -0.218767   -1.795855
H      6.966722    2.192774    0.050009
H      5.013527    1.723245   -1.232521
H      7.306384   -0.824443    0.433287
H      5.082740   -1.209718   -0.548733
H     -6.110497    0.488677    2.273459
H      6.423083    2.340384   -2.621447
H      9.063326    2.082894    0.364534
H      4.441540    0.890058   -3.150156
H      9.319090    0.181541    3.221493
