111

C     11.925624    0.540211    5.067258
C     12.013760   -0.141318    3.722160
C     10.796744    0.276240    2.887229
C     10.864581   -0.395360    1.556188
C      9.652760   -0.014840    0.677555
C      9.755162   -0.699474   -0.637273
C      8.767792   -0.484553   -1.684006
C      7.337397   -0.796850   -1.487627
C      6.576294   -0.001512   -0.532129
C      5.524161    0.720010   -0.978496
C      5.061147    0.790233   -2.344560
C      3.664812    0.371257   -2.627628
C      3.244708   -0.996185   -2.248192
C      3.206351   -1.298442   -0.784237
C      2.214578   -0.363366   -0.078643
C     -7.199690   -0.132684   -5.379775
C     -6.339632    1.650128    5.663374
C     -9.570263   -0.244885   -0.162011
C     -3.086844   -2.763928    1.919348
C     -6.950307   -1.063485   -4.392016
C     -6.220642    0.739581   -5.807367
C     -6.405077    0.331526    5.262554
C     -6.081687    2.626756    4.723915
C     -9.449429    0.351408    1.067465
C     -8.431031   -0.583944   -0.842563
C     -2.646387   -1.508415    2.225394
C     -4.360886   -2.972327    1.469446
C      0.823591   -0.595736   -0.628875
C     -5.701750   -1.096920   -3.848183
C     -4.950321    0.708551   -5.256668
C     -6.211111   -0.006859    3.917500
C     -5.891870    2.275964    3.400244
C     -8.188571    0.613067    1.623860
C     -7.205072   -0.321218   -0.284453
C     -3.512463   -0.448054    2.072770
C     -5.207389   -1.866287    1.330348
C     -0.123794    0.393969    0.003125
C     -3.364930   -0.341360   -3.620822
C     -3.757814    1.571032   -2.469982
C     -4.801559    1.756599   -0.319343
C     -4.702534   -0.219020   -4.273562
C     -5.953180    0.968699    2.983539
C     -7.025111    0.275806    0.944619
C     -4.803800   -0.586253    1.627285
C     -3.794214    0.926180   -1.032250
C     -1.529823    0.141269   -0.501172
C     -5.716815    0.591467    1.521396
O     -1.751872   -1.039000   -0.848887
O     -2.918440    0.930833   -3.324812
O     -5.096660    1.646669    0.959286
O     -2.476460    1.095299   -0.581003
H     12.913533    1.020593    5.319602
H     11.727854   -0.229498    5.864891
H     11.133754    1.319184    5.085482
H     11.987088   -1.241075    3.838566
H     12.934291    0.195398    3.209339
H      9.899960   -0.012319    3.435713
H     10.795865    1.380727    2.769747
H     10.908556   -1.482914    1.679471
H     11.767974   -0.060915    1.012324
H      9.614585    1.063518    0.639551
H      8.766500   -0.389024    1.245221
H      9.874327   -1.830818   -0.488385
H     10.776060   -0.375299   -1.056247
H      8.844565    0.625005   -1.981835
H      9.143585   -1.056003   -2.607461
H      6.816801   -1.010933   -2.454704
H      7.343098   -1.878175   -1.028271
H      6.750356    0.072656    0.533580
H      4.961957    1.315307   -0.227805
H      5.717345    0.333347   -3.115323
H      5.076091    1.911842   -2.638849
H      3.501568    0.508846   -3.744645
H      2.998597    1.166812   -2.193607
H      2.310385   -1.284249   -2.772478
H      4.019491   -1.700608   -2.687930
H      4.148996   -1.234966   -0.299868
H      2.758060   -2.321362   -0.688784
H      2.519398    0.686902   -0.117691
H      2.206951   -0.682452    0.983093
H     -8.199591   -0.116222   -5.805756
H     -6.478969    1.955175    6.693461
H    -10.572127   -0.428399   -0.557152
H     -2.386402   -3.591090    2.048077
H     -7.690514   -1.764299   -4.031743
H     -6.415582    1.467225   -6.581800
H     -6.609189   -0.445156    6.005417
H     -6.034653    3.650189    5.059480
H    -10.329351    0.627875    1.629959
H     -8.471234   -1.058538   -1.822258
H     -1.634433   -1.319980    2.585285
H     -4.694923   -3.978120    1.228996
H      0.463648   -1.619045   -0.427769
H      0.809168   -0.404145   -1.734655
H     -5.475307   -1.815886   -3.071595
H     -4.165346    1.380329   -5.575902
H     -6.277426   -1.056602    3.664588
H     -5.696875    3.052633    2.696794
H     -8.195386    1.081900    2.594246
H     -6.322527   -0.599140   -0.841714
H     -3.148557    0.560507    2.319623
H     -6.187181   -2.092201    0.987944
H     -0.144399    0.250535    1.107143
H      0.159111    1.409640   -0.308949
H     -3.450913   -1.050006   -2.812384
H     -2.631518   -0.808320   -4.353259
H     -3.475980    2.624186   -2.372717
H     -4.801101    1.557323   -2.864426
H     -5.750152    1.837232   -0.985128
H     -4.415981    2.839923   -0.464932
H     -3.995937   -0.129895   -1.170889
