21

C     -3.199072    0.976570   -0.502104
C      1.886538    0.985076    0.270205
C     -3.362533   -0.449712   -0.075259
C      1.923824   -0.525782    0.338586
C      3.208805   -0.981737   -0.236111
C     -0.989632   -0.760301    0.188904
O      3.201972   -1.720344   -1.249155
O      4.420986   -0.616627    0.312063
O     -2.188454   -1.158912   -0.380113
S     -0.978643    0.087388    1.576187
S      0.537015   -1.176273   -0.597028
H     -4.179119    1.505000   -0.615596
H     -2.710045    1.042572   -1.491715
H     -2.627533    1.517114    0.269746
H      0.860042    1.340697    0.340265
H      2.322871    1.267665   -0.715422
H      2.557848    1.359485    1.082978
H     -4.197221   -0.923160   -0.632353
H     -3.611409   -0.461711    1.007246
H      1.862640   -0.789402    1.428250
H      5.261120   -0.517605   -0.257072
