62

C      4.792039    0.240924    1.921332
C      4.000007   -0.904709    2.492336
C      3.745314   -1.953399    1.414707
C      2.951124   -1.204363    0.318554
C      2.625627   -2.098014   -0.807498
C      1.839872   -1.480094   -1.894996
C      2.348264   -0.383403   -2.673345
C      2.721933    0.964828   -2.311160
C      1.749707    1.939996   -1.761278
C      1.187746    1.548067   -0.450587
C      0.198635    2.568939    0.090341
C     -0.971497    2.808830   -0.773405
C     -1.739415    1.492370   -0.962476
C     -2.177075    1.024018    0.385169
C     -4.313552    0.205691    2.295562
C     -2.992104   -0.266671    0.207914
C     -3.459456   -0.787707    1.536865
C     -5.546370    0.603216    1.602278
C     -2.104965   -1.227958   -0.493725
C     -4.239029   -2.023661    1.319394
O     -5.877341    0.133249    0.494662
O     -6.407557    1.535626    2.164085
O     -1.413298   -2.107944    0.110744
O     -1.967318   -1.228726   -1.874610
O     -5.402065   -2.103582    1.775412
O     -3.714900   -3.083765    0.629371
H      5.363833   -0.142954    1.045563
H      4.123375    1.062852    1.649640
H      5.485285    0.609500    2.717245
H      4.485132   -1.348392    3.383985
H      3.007619   -0.517953    2.805291
H      4.673699   -2.343894    0.998827
H      3.050823   -2.710651    1.812080
H      1.985943   -0.961351    0.850917
H      3.526442   -0.344593    0.002564
H      2.052040   -3.013845   -0.443048
H      3.583677   -2.493670   -1.293744
H      1.679102   -2.383317   -2.668330
H      0.752360   -1.367748   -1.547046
H      1.606542   -0.274252   -3.596319
H      3.266219   -0.802332   -3.295930
H      3.166460    1.496422   -3.267455
H      3.647287    1.076519   -1.653383
H      2.347679    2.918488   -1.674471
H      0.946372    2.112014   -2.537553
H      0.752106    0.550728   -0.491937
H      2.066865    1.503441    0.266598
H      0.794201    3.531302    0.141757
H     -0.006631    2.310011    1.138978
H     -0.762079    3.178553   -1.772102
H     -1.703290    3.510584   -0.282009
H     -2.560557    1.714095   -1.651734
H     -1.030221    0.778789   -1.441985
H     -1.256077    0.761296    0.967561
H     -2.718664    1.778411    0.964446
H     -4.554324   -0.285774    3.287187
H     -3.703570    1.104361    2.601932
H     -3.819608    0.023034   -0.464337
H     -2.560211   -0.976315    2.165454
H     -7.420153    1.518719    2.007177
H     -1.799830   -2.117865   -2.324175
H     -4.302171   -3.665969    0.033548
