33

C      2.737792    1.604307   -0.925539
C     -3.511466    0.568190    1.898315
C     -2.273926    0.982770    2.282803
C     -1.598383   -1.270059   -2.089910
C     -3.668617   -0.102886    0.706344
C     -2.700756   -1.021966   -1.291179
C     -1.188934    0.725577    1.472608
C     -0.353262   -0.858831   -1.713955
C      2.282891    0.164295   -0.636131
C     -2.562637   -0.347485   -0.087046
C     -1.292515    0.054869    0.264787
C     -0.170881   -0.191479   -0.536660
C      3.191005   -0.482818    0.325705
O      2.768920   -0.833562    1.441196
O      4.507982   -0.695542   -0.019972
O      1.022377    0.265611   -0.059936
N     -0.005683    0.005321    0.229981
H      3.051546    2.066351    0.030315
H      3.520953    1.617991   -1.700325
H      1.830457    2.138326   -1.275487
H     -4.377810    0.762342    2.524513
H     -2.083675    1.512661    3.203588
H     -1.743303   -1.802796   -3.029937
H     -4.657407   -0.448254    0.373036
H     -3.695854   -1.337220   -1.566871
H     -0.185629    1.050236    1.763158
H      0.498805   -1.056660   -2.342538
H      2.270164   -0.368016   -1.616079
H      3.295734   -1.278771    2.166596
H      5.086429   -1.417181    0.438599
H      0.958780   -0.275205   -0.075231
H     -0.721097   -0.701483   -0.076752
H     -0.232000    0.971367   -0.077997
