22

C     -2.036874    1.191118   -1.432695
C      2.595598   -1.055994   -0.358484
C      2.050840   -1.320193    1.925158
C     -1.705163    0.669260   -0.033739
C      2.863802   -1.604566    0.856139
C      1.496361   -0.204148   -0.524034
C      0.965210   -0.472926    1.741237
C      0.656497    0.103489    0.531858
C     -2.763235    1.133741    0.859132
Cl     4.254306   -2.673047    1.033783
Cl     1.270871    0.433495   -2.139156
Cl    -0.020662   -0.151746    3.145385
O     -3.422152    2.160631    0.561514
O     -3.092488    0.493879    2.043558
O     -0.402700    0.934204    0.337722
Na     0.000000    0.000000    0.000000
H     -3.141358    1.253599   -1.507624
H     -1.565739    2.176343   -1.617493
H     -1.718599    0.443370   -2.174988
H      3.247661   -1.293853   -1.182005
H      2.276706   -1.764028    2.885647
H     -1.808881   -0.452628   -0.138231
