30

C      2.217789    0.738601   -1.030326
C      2.992294   -0.482226    0.865722
C      3.402865    1.420263   -1.066918
C      4.192233    0.213918    0.821935
C     -2.609239   -1.259313   -0.231168
C     -1.963264   -1.199165    1.105466
C      0.743520   -0.988517    0.027248
C      2.008988   -0.218458   -0.059588
C      4.392885    1.172726   -0.156092
C     -3.066365    0.040764   -0.794114
C     -4.069659    0.727932    0.026273
Br     6.025733    2.133221   -0.231155
N     -1.854784    0.873033   -0.934651
O     -4.396986    0.402131    1.183891
O     -4.715599    1.841604   -0.532397
S     -0.474055   -0.143003    1.097094
Na     0.000000    0.000000    0.000000
H      1.409903    0.900293   -1.727209
H      2.860090   -1.237403    1.652205
H      3.561527    2.170416   -1.831319
H      4.996017    0.044211    1.525501
H     -1.907437   -1.780088   -0.933479
H     -3.512721   -1.927378   -0.112282
H     -2.629996   -0.860795    1.900876
H     -1.607551   -2.227970    1.355685
H      0.307062   -1.209974   -0.967255
H      0.926519   -1.982717    0.532171
H     -3.511822   -0.073813   -1.814386
H     -1.892441    1.572259   -0.157769
H     -1.825504    1.339448   -1.867272
