20

C     -1.989191   -1.108314    0.651466
C      2.801304    0.009950    0.216346
C      2.271338   -0.625651   -0.882577
C      1.977688    0.601631    1.126147
C      0.906489   -0.673677   -1.079480
C      0.602999    0.551957    0.925676
C     -1.433139   -0.102108   -0.333363
C      0.057670   -0.081313   -0.170707
N     -2.661214    1.914492   -0.985669
O     -2.170875    3.046527   -1.269171
O     -1.983791    1.169269   -0.077326
H     -1.195191   -1.528387    1.318282
H     -2.385153   -2.007346    0.095805
H     -2.780227   -0.693365    1.282880
H      3.869729    0.061711    0.393956
H      2.941317   -1.087315   -1.590095
H      2.352098    1.121507    2.019924
H      0.463011   -1.168667   -1.937952
H     -0.029360    1.035992    1.673533
H     -1.615502   -0.436892   -1.377676
