16

C     -1.060630   -0.970140   -0.056243
C     -0.749407    0.469748    0.216745
C     -1.732059    1.396324   -0.390497
C      1.662390    0.150111    0.256597
N      1.629679   -0.308087    1.471337
O     -1.809986    2.596297   -0.024493
O     -2.603647    0.978169   -1.385018
O      0.546837    0.806827   -0.245692
S      3.113509   -0.057495   -0.755177
Na     0.000000    0.000000    0.000000
H     -1.463081   -1.479101    0.836198
H     -1.813303   -1.089606   -0.856737
H     -0.152903   -1.552611   -0.354550
H     -0.771660    0.610535    1.318649
H      2.412831   -0.803163    1.911610
H      2.791430   -0.747808   -1.942728
