34

C     -1.993408    2.742038   -0.605283
C      0.004027    2.091247   -1.835885
C     -1.897139   -3.322544    1.256494
C      3.374196    0.062558    1.083465
C     -0.221639   -1.572674    0.557716
C     -2.225603    0.226952    0.194103
C     -0.684670    2.000471   -0.498960
C     -1.546856   -1.949013    0.799910
C      2.532187   -0.645282    0.009593
C     -0.934394    0.633665   -0.054209
C     -2.564485   -1.046361    0.618719
C      0.072881   -0.300990    0.137825
C      3.352831   -0.670396   -1.202488
Cl    -4.220193   -1.501181    0.916592
O      4.364865   -1.409356   -1.239723
O      3.056074    0.091989   -2.315004
O      1.354507    0.073710   -0.099730
Na     0.000000    0.000000    0.000000
H     -2.516231    2.831216    0.383534
H     -1.801220    3.776877   -1.020204
H     -2.625645    2.257889   -1.379949
H     -0.191508    1.233643   -2.488508
H      1.109487    2.269889   -1.678926
H     -0.351832    3.001110   -2.363988
H     -2.791792   -3.672467    0.719808
H     -2.087915   -3.338653    2.353237
H     -1.001890   -3.958650    1.086868
H      4.423405   -0.205072    0.910002
H      3.280638    1.150359    0.895358
H      3.017927   -0.228342    2.083755
H      0.508775   -2.351106    0.727997
H     -3.080648    0.903403    0.067129
H     -0.091603    2.514719    0.290425
H      2.376867   -1.689646    0.346368
