22

C     -2.308118   -1.523504    0.679736
C      2.688783   -0.234794    0.831992
C      2.468103    1.445618   -0.811076
C     -1.765463   -0.452706   -0.261612
C      3.275092    0.634018   -0.051308
C      1.318435   -0.292707    0.954931
C      1.096869    1.379080   -0.679441
C      0.470356    0.521832    0.194074
C     -2.890310    0.307303   -0.851317
Cl     5.024440    0.726448   -0.226652
Cl     0.672631   -1.440798    2.115962
Cl     0.140736    2.451551   -1.676255
O     -2.795913    0.942437   -1.916475
O     -4.127108    0.333712   -0.209111
O     -0.874136    0.398892    0.380295
Na     0.000000    0.000000    0.000000
H     -1.746784   -2.475821    0.587706
H     -3.367992   -1.768931    0.378086
H     -2.289145   -1.181717    1.715439
H      3.346624   -0.870689    1.426199
H      2.929742    2.128692   -1.505568
H     -1.266842   -1.027917   -1.075604
