18

C     -1.996007    1.239333   -0.030156
C      1.057612    0.167030   -0.633458
C     -0.205692   -0.215531    0.130717
C      2.282196   -0.239009    0.081062
C     -0.308128   -1.663921    0.349066
O      2.668653   -1.455210    0.056966
O      3.008235    0.718971    0.779048
O     -1.125859   -2.341938   -0.319707
O      0.477401   -2.320860    1.281086
O     -1.276352    0.218076   -0.654506
K      0.000000    0.000000    0.000000
K      0.000000    0.000000    0.000000
H     -2.813860    1.511803   -0.719795
H     -1.303621    2.106763    0.034565
H     -2.354560    0.904760    0.953732
H      1.034143    1.270739   -0.739440
H      1.022850   -0.259483   -1.658448
H     -0.167014    0.358477    1.089268
