33

C     -3.461214   -1.461892    0.317823
C      4.682457    0.255417    0.294035
C      4.175508    0.831672    1.461200
C      3.828926   -0.273655   -0.661020
C      2.826208    0.879902    1.674356
C      1.594773   -0.750178   -1.391733
C      0.214012   -0.716766   -1.204653
C      0.635482    0.389093    0.911967
C     -2.649781   -0.506393   -0.541895
C      2.459012   -0.224335   -0.443925
C      1.987766    0.347339    0.711161
C     -0.241777   -0.139871   -0.040775
C     -3.509989    0.679405   -0.892909
O     -4.529532    0.450625   -1.588783
O     -3.179132    1.945057   -0.463069
O     -1.575646   -0.063453    0.225923
N     -0.006098   -0.008576    0.283844
H     -3.788214   -2.296345   -0.330358
H     -4.376161   -0.960132    0.708960
H     -2.865110   -1.889442    1.131302
H      5.744545    0.223671    0.138342
H      4.905625    1.226955    2.166600
H      4.218615   -0.713764   -1.552651
H      2.423759    1.330727    2.587982
H      1.988223   -1.191070   -2.285213
H     -0.395299   -1.135184   -1.965776
H      0.254862    0.839816    1.823469
H     -2.341102   -0.979489   -1.490529
H     -5.118331    1.233013   -1.834061
H     -3.908485    2.669277   -0.401056
H     -0.579617   -0.784460   -0.097338
H     -0.387915    0.888814   -0.093207
H      0.973630   -0.095778   -0.093298
