28

C     -2.740906   -0.102819   -0.189040
C      0.454262   -0.909674   -0.139490
C     -0.452468    0.238595   -0.041956
C      1.674140   -0.945154    0.639063
C      0.034041    1.555914   -0.407086
O      2.447691   -1.974664    0.499200
O      2.261967   -0.102350    1.554956
O      0.999511    2.049518    0.212272
O     -0.526382    2.306909   -1.423977
O     -1.558980   -0.036906   -0.886003
N     -0.016706   -0.010466    0.233272
N      0.006582   -0.001812    0.245128
H     -3.546516   -0.318226   -0.905706
H     -2.930901    0.890477    0.271761
H     -2.723805   -0.917945    0.577144
H      0.633522   -1.145092   -1.238199
H     -0.148548   -1.818694    0.183146
H     -0.899484    0.322426    0.987225
H      2.152893   -2.677494   -0.136659
H      2.954609    0.587158    1.335776
H      2.012801   -0.188899    2.517848
H     -0.097446    3.186920   -1.676436
H      0.935329   -0.311328   -0.074874
H     -0.763737   -0.649372   -0.082200
H     -0.154887    0.971166   -0.076199
H      0.973362   -0.202704   -0.083203
H     -0.666175   -0.727151   -0.081050
H     -0.313769    0.931666   -0.080875
