33

C      3.206534   -0.903851    0.715623
C     -4.322047    0.166071    0.844298
C     -4.389896   -0.734729   -0.199921
C     -3.098686    0.641854    1.278147
C     -3.210258   -1.133261   -0.781786
C     -0.711359    0.728507    1.142659
C      0.481417    0.317353    0.544756
C     -0.796617   -1.056663   -0.931671
C      2.827377   -0.518094   -0.669210
C     -1.908558    0.235518    0.686138
C     -1.988652   -0.667701   -0.359693
C      0.436260   -0.573373   -0.490042
C      2.966649    0.930745   -0.972768
O      2.026652    1.504757   -1.576861
O      4.065125    1.681945   -0.631204
O      1.580039   -1.003034   -1.104995
N      0.004529   -0.004738    0.249745
H      3.649325   -0.012071    1.218533
H      2.404548   -1.390267    1.305402
H      4.054964   -1.632161    0.673087
H     -5.254785    0.478617    1.301370
H     -5.357396   -1.121891   -0.555733
H     -3.050918    1.345420    2.094244
H     -3.241955   -1.837939   -1.600784
H     -0.650986    1.436792    1.963034
H      1.402119    0.739978    0.947947
H     -0.845266   -1.761669   -1.749370
H      3.566152   -1.030431   -1.373460
H      2.042055    2.485395   -1.820667
H      4.118164    2.684180   -0.785250
H      0.957110   -0.241242   -0.084503
H     -0.696155   -0.709900   -0.083299
H     -0.265484    0.955880   -0.081943
