28

C     -3.788772    1.283093   -1.077472
C      4.352223   -0.284723    0.300110
C      4.108880   -0.818652   -0.948688
C      3.323417    0.171245    1.067045
C      2.824095   -0.898854   -1.438610
C      1.031973    0.567980    1.396112
C     -0.283813    0.505338    0.937757
C      0.476928   -0.491592   -1.099596
C     -3.022621    0.278433   -0.231476
C      2.030076    0.096655    0.587559
C      1.773198   -0.433200   -0.655442
C     -0.559121   -0.020031   -0.299722
C     -3.881614   -0.936233   -0.128027
O     -4.796246   -1.140530   -0.959227
O     -3.675207   -1.845433    0.885295
O     -1.825256   -0.110233   -0.807465
Na     0.000000    0.000000    0.000000
H     -4.770852    1.427164   -0.585359
H     -3.860041    0.862597   -2.094555
H     -3.275323    2.257472   -1.146750
H      5.375343   -0.249185    0.627144
H      4.907835   -1.184890   -1.571329
H      3.510698    0.589617    2.044727
H      2.569576   -1.305341   -2.406145
H      1.197728    0.991146    2.379275
H     -1.088696    0.874539    1.565536
H      0.263985   -0.906761   -2.076385
H     -2.918396    0.720378    0.778416
