33

C      2.015624   -0.170930    1.940886
C      5.794028   -0.294413   -0.760760
C     -3.393077    1.285020   -0.898180
C     -2.480397   -0.372459    0.698855
C     -4.611851    0.925010   -0.039480
C     -3.634463   -1.179768    0.124661
C      2.169595   -0.601456    0.482398
C      4.486978   -0.846232   -0.316228
C      1.048566   -0.048696   -0.307679
C     -0.952990    1.230100   -0.428665
N      0.139571    0.669944    0.246628
N     -2.252742    0.723179   -0.213177
O      4.350940   -2.096809   -0.280188
O      0.959021   -0.297245   -1.664112
O     -4.784958   -0.434609    0.055599
O      3.420815   -0.063819    0.056939
S     -0.698592    2.467339   -1.459052
H      1.220989   -0.732192    2.452089
H      1.801030    0.924680    1.917276
H      3.011824   -0.292970    2.416515
H      6.390026   -1.056030   -1.264544
H      6.369904    0.033334    0.148107
H      5.677414    0.630373   -1.370371
H     -3.540677    0.731374   -1.854878
H     -3.351645    2.366217   -1.027581
H     -1.597268   -1.025492    0.822322
H     -2.814437    0.012529    1.706544
H     -4.551426    1.421611    0.945039
H     -5.511342    1.351641   -0.555932
H     -3.322005   -1.436299   -0.928264
H     -3.739500   -2.111981    0.705804
H      2.220705   -1.708841    0.455322
H      0.160342   -0.002110   -2.233008
