28

C      3.948863   -0.064658    1.109250
C     -4.414082    0.112696    0.312471
C     -3.879908   -1.092882    0.711384
C     -3.530243    1.101417   -0.098717
C     -2.512912   -1.318903    0.705640
C     -1.291049    1.860787   -0.513714
C      0.064756    1.653950   -0.525635
C      2.922219   -0.574201    0.092703
C     -2.165537    0.880139   -0.106017
C     -1.645281   -0.330917    0.295745
C      0.613602    0.429645   -0.120933
C     -0.260733   -0.536784    0.281648
C      3.700360   -0.763426   -1.190333
Cl     0.262074   -2.121015    0.817249
O      3.254533   -1.563895   -2.048193
O      4.864343   -0.048610   -1.361788
O      1.925776    0.299596   -0.157650
Na     0.000000    0.000000    0.000000
H      4.758903   -0.815024    1.114663
H      4.336722    0.910417    0.757769
H      3.457378    0.059605    2.077939
H     -5.480628    0.297563    0.313886
H     -4.557989   -1.891556    1.041255
H     -3.888061    2.071723   -0.424361
H     -2.123455   -2.289713    1.029451
H     -1.696011    2.832170   -0.836747
H      0.722209    2.467095   -0.859393
H      2.614152   -1.565219    0.468149
