18

C      2.635086   -0.239686   -0.054832
C     -1.794712   -0.599874   -0.902669
C      1.258298    0.371736   -0.173668
C     -0.960614    0.169854    0.109821
C     -1.670477    0.267618    1.408607
O     -1.320441   -0.380387    2.428387
O     -2.771225    1.104392    1.526061
O      0.260049   -0.475933    0.256859
Na     0.000000    0.000000    0.000000
H      2.925249   -0.227677    1.004623
H      3.332086    0.447802   -0.589612
H      2.669343   -1.272057   -0.458569
H     -2.148898   -1.564270   -0.519966
H     -1.204152   -0.760500   -1.804111
H     -2.695436    0.029397   -1.120836
H      1.051372    0.644073   -1.234515
H      1.247346    1.305715    0.432442
H     -0.812873    1.179797   -0.308023
