31

C      3.478530    0.658134   -0.873696
C      2.241547    0.487590   -0.020412
C     -1.098523    0.498020   -0.508973
C      0.051824   -0.228569    0.112867
C     -2.278992    0.478479    0.339569
C     -0.230564   -1.669749    0.335091
O     -2.202602    0.371089    1.623915
O     -3.637825    0.560418    0.036042
O      0.529672   -2.573769   -0.118357
O     -1.329897   -2.085739    1.040131
O      1.201524   -0.078915   -0.699627
N     -0.002339    0.009254    0.220471
N      0.007378   -0.016054    0.253487
H      4.166570   -0.217287   -0.726857
H      4.044088    1.558272   -0.585440
H      3.209306    0.677588   -1.941540
H      2.000284    1.510586    0.386689
H      2.538922   -0.191456    0.826627
H     -1.223860    0.061609   -1.539144
H     -0.725958    1.534399   -0.733618
H      0.360246    0.180230    1.104124
H     -1.330667    0.300779    2.075151
H     -4.205504   -0.254331   -0.060776
H     -4.103064    1.435446   -0.066302
H     -1.455058   -3.012825    1.423834
H      0.980830   -0.186174   -0.072764
H     -0.629457   -0.768134   -0.072384
H     -0.349035    0.945054   -0.075323
H     -0.056725    0.968188   -0.080641
H      0.897743   -0.446487   -0.088916
H     -0.848396   -0.505647   -0.083930
