15

C     -1.277951   -0.927770   -0.205703
C      1.906357   -0.089227   -0.490245
C     -0.254747    0.093108    0.255808
C     -0.947885    1.331661    0.671245
O     -0.376267    2.193652    1.377010
O     -2.248206    1.551418    0.279578
O      0.604324    0.331342   -0.792060
Na     0.000000    0.000000    0.000000
H     -1.697537   -0.653215   -1.195820
H     -2.059459   -1.000145    0.567003
H     -0.760122   -1.888132   -0.330668
H      2.261192    0.475439    0.409275
H      1.968235   -1.173371   -0.298299
H      2.580796    0.134010   -1.338547
H      0.301273   -0.378770    1.091422
