32

C      4.896649    1.080484    0.997109
C     -5.135889    1.094263    0.388954
C     -4.033499    1.915732    0.265491
C     -4.964835   -0.272965    0.190924
C     -2.791825    1.373906   -0.049138
C     -3.720340   -0.789251   -0.121216
C      1.379244   -1.395284   -0.974946
C     -1.284011   -0.579260   -0.586246
C     -2.611909    0.021220   -0.247209
C      2.363912   -1.658839    0.160364
C      0.954337    0.021206   -0.853403
C      3.548096   -0.756662    0.057822
N     -0.252628    0.403339   -0.676680
O      1.671210   -1.325496    1.343381
O      1.925809    1.023836   -0.935014
O      4.348970   -0.823381   -0.894316
O      3.808081    0.208846    1.036208
H      5.522355    0.860797    1.910955
H      5.564196    0.952702    0.135055
H      4.579863    2.139332    1.078152
H     -6.104246    1.506194    0.633051
H     -4.164833    2.990990    0.420591
H     -5.826925   -0.915385    0.287465
H     -1.930616    2.016053   -0.145542
H     -3.593135   -1.860283   -0.274976
H      0.524813   -2.071781   -0.811000
H      1.860947   -1.549050   -1.963655
H     -1.047627   -1.292939    0.228921
H     -1.384043   -1.198395   -1.516811
H      2.708795   -2.700938    0.171917
H      1.468925   -0.343405    1.241804
H      1.720159    1.924413   -0.498011
