32

C      3.080102    1.147355    1.891096
C     -3.393152    0.945712    1.780270
C     -2.465075    1.354438    0.835151
C     -3.646568   -0.407030    1.862966
C     -1.834070    0.450896    0.025624
C     -3.011138   -1.320026    1.047321
C      1.658274   -0.514758   -2.229013
C     -1.443278   -1.913344   -0.730696
C     -2.096747   -0.892667    0.119625
C      2.201684    0.815767   -1.754122
C      0.689881   -1.101522   -1.287134
C      2.873257    0.575181   -0.455892
N     -0.503218   -1.338003   -1.663146
O      1.247920    1.798621   -1.665921
O      1.052072   -1.402842    0.005504
O      3.768000   -0.257826   -0.270244
O      2.468466    1.340664    0.630978
H      2.294397    1.253670    2.657295
H      3.526761    0.137123    1.924328
H      3.882759    1.886953    2.040673
H     -3.898704    1.650300    2.426106
H     -2.238785    2.421775    0.741444
H     -4.364089   -0.762936    2.588046
H     -1.114024    0.766474   -0.707879
H     -3.230542   -2.386219    1.133761
H      2.563070   -1.176585   -2.363211
H      1.253857   -0.366073   -3.239181
H     -0.973929   -2.658064   -0.047086
H     -2.240328   -2.467777   -1.271512
H      2.973168    1.119936   -2.498528
H      0.523479    1.725157   -2.313961
H      0.396502   -1.398467    0.787338
