21

C     -0.649914   -1.311171   -0.452159
C      1.620975   -0.454379   -0.291859
C     -0.210886    1.141818   -0.163162
C     -1.499170    1.554573    0.434678
C      0.180002   -0.257682    0.201893
O     -0.101698   -2.557282   -0.079988
O      2.463356    0.474064    0.325264
O     -0.161744    1.344207   -1.539830
O     -1.813381    2.768830    0.533508
O     -2.440511    0.641429    0.922769
O      0.123540   -0.437039    1.578932
K      0.000000    0.000000    0.000000
H     -0.634730   -1.250693   -1.556256
H     -1.695102   -1.330994   -0.084709
H      1.923099   -1.475416    0.022568
H      1.686201   -0.295251   -1.378702
H      0.569536    1.818941    0.284191
H     -0.755541   -3.276928   -0.124290
H      2.092283    0.793558    1.180845
H     -1.004702    1.719252   -1.900633
H      0.308387    0.390165    2.086938
