25

C      3.541638    1.691561   -0.331413
C     -0.656360    0.949656   -0.026754
C      0.716417    1.181489   -0.124608
C     -0.110651   -1.372917    0.331436
C     -1.056954   -0.343688    0.203496
C      1.240248   -1.140245    0.234272
C      1.633330    0.160967    0.003253
C     -2.487689   -0.709622    0.332157
C     -3.374617    0.394480   -0.031665
N      2.217515   -2.165460    0.360424
O     -2.677155   -1.824172   -0.495986
O     -4.101795    0.269742   -1.060417
O     -3.448194    1.560366    0.704235
O      3.417201   -2.017400   -0.271269
O      2.003927   -3.198801    1.035902
O      3.003349    0.403006   -0.096171
H      4.602736    1.693401    0.039683
H      2.981752    2.463549    0.248575
H      3.516900    1.866076   -1.420741
H     -1.348670    1.770425   -0.135693
H      1.016675    2.201098   -0.305299
H     -0.467796   -2.392156    0.514680
H     -2.644629   -1.045287    1.393980
H     -3.209302   -2.519575   -0.070565
H     -4.307876    2.123510    0.741103
