16

C      0.742259    0.181277   -0.840628
C     -0.569361    0.740657   -0.438966
C      1.826052    0.218542    0.121217
C     -1.238808    0.121114    0.702174
N      1.743446    0.799145    1.257864
O     -1.426622    0.590608   -1.557000
O      3.022223   -0.406410   -0.202745
O     -0.706647    0.139446    1.829109
O     -2.471222   -0.502464    0.585205
Na     0.000000    0.000000    0.000000
H      1.082196    0.790566   -1.732138
H      0.565314   -0.853194   -1.212717
H     -0.461377    1.846068   -0.236760
H      2.486641    0.846066    1.961746
H     -1.891288   -0.269149   -1.450601
H     -2.702805   -1.282203    1.214240
