41

C     -1.646435    1.301217    0.909053
C     -1.562754   -0.419786   -0.852134
C      0.330067   -0.172625    0.762322
C     -0.722325    0.544152   -0.043153
C      1.280785   -0.942875   -0.093544
C      2.003672   -0.075676   -1.045547
O      2.160929   -1.615499    0.755614
O      1.441853    0.345409   -2.057857
O      3.315892    0.251528   -0.778409
C     -1.869100    0.767758    1.043267
C     -1.168144   -1.162720   -0.289842
C      0.181171    0.951105   -0.235556
C     -0.661083   -0.019602    0.529364
C      1.426772    0.323455   -0.814777
C      2.290521   -0.241060    0.239374
O      1.144300   -0.652312   -1.745984
O      2.929239    0.527960    0.979328
O      2.379989   -1.606653    0.392134
Ba     0.000000    0.000000    0.000000
H     -1.803493    2.335836    0.590066
H     -1.157816    1.352576    1.918349
H     -2.622224    0.818771    1.019279
H     -1.471595   -1.472676   -0.468692
H     -2.628031   -0.102197   -0.839505
H     -1.253849   -0.397263   -1.919746
H     -0.116530   -0.794325    1.546826
H      0.900147    0.635350    1.306372
H     -0.209578    1.275057   -0.696936
H      0.730843   -1.706373   -0.683117
H      3.030442   -1.160603    0.670757
H     -2.292964    1.362118    0.196164
H     -2.614524    0.074191    1.464621
H     -1.564665    1.500049    1.825753
H     -1.147204   -0.982401   -1.379671
H     -0.603163   -2.096965   -0.009957
H     -2.246982   -1.382599   -0.045351
H     -0.380875    1.477005   -1.012082
H      0.527668    1.726130    0.488214
H     -0.123811   -0.364761    1.424268
H      1.966372    1.145097   -1.360169
H      1.826482   -1.345795   -1.689097
