41

C     -1.780330    1.249112   -0.501818
C     -1.393280   -0.817375    0.842523
C      0.354058    0.112061   -0.689673
C     -0.749845    0.413430    0.258422
C      1.480556   -0.702205   -0.157074
C      2.133911   -0.014834    0.979543
O      2.438087   -0.815678   -1.172102
O      2.981327   -0.688536    1.641555
O      1.885581    1.286141    1.357064
C     -1.929063   -1.257779   -0.190822
C     -1.471942    1.058460    0.334208
C      0.396665   -0.550055   -0.101557
C     -0.977246   -0.095716   -0.511528
C      1.464021    0.460574   -0.341401
C      2.758032   -0.103710    0.100588
O      1.170256    1.620858    0.406051
O      3.260012    0.245828    1.191556
O      3.438574   -1.022617   -0.673357
Ba     0.000000    0.000000    0.000000
H     -2.006895    2.192433    0.040058
H     -2.693632    0.639538   -0.651007
H     -1.420053    1.543440   -1.500975
H     -2.483786   -0.639574    0.885594
H     -1.223147   -1.720475    0.223913
H     -1.003195   -1.024673    1.861119
H     -0.091968   -0.406351   -1.581758
H      0.778298    1.085708   -1.034000
H     -0.395310    1.027998    1.103399
H      1.174173   -1.725339    0.156852
H      2.015451   -0.994822   -2.061635
H     -1.847210   -1.407561    0.905820
H     -1.569484   -2.136490   -0.742949
H     -2.962554   -0.956044   -0.453628
H     -1.207210    0.820373    1.393296
H     -2.588381    1.058846    0.230041
H     -1.101962    2.030185   -0.001226
H      0.360032   -0.840606    0.949077
H      0.631392   -1.455906   -0.705560
H     -1.044729    0.134831   -1.599554
H      1.498333    0.758610   -1.407936
H      1.722464    1.637919    1.218881
