27

C      3.744953    0.217918    0.399410
C      2.684350    1.093895   -0.170270
C      1.288775    0.734036    0.265994
C      0.877257   -0.642835   -0.108332
C     -0.525113   -0.944789    0.361101
C     -1.501371    0.005114   -0.248625
C     -2.888833   -0.374013    0.272324
C     -3.909843    0.538944   -0.300793
O     -3.169625   -1.659683   -0.209230
O     -3.980125    1.702825    0.199149
O     -4.764128    0.193513   -1.323769
Na     0.000000    0.000000    0.000000
H      3.636623    0.146918    1.498349
H      4.727605    0.700382    0.206223
H      3.795969   -0.781599   -0.080652
H      2.753249    1.163782   -1.267793
H      2.873544    2.135613    0.209068
H      1.115082    0.938758    1.335068
H      0.615994    1.443484   -0.302439
H      1.531130   -1.434248    0.329262
H      0.845449   -0.745888   -1.234093
H     -0.519372   -0.804881    1.470462
H     -0.754297   -2.001644    0.101967
H     -1.311855    1.027749    0.141195
H     -1.500077   -0.039645   -1.341106
H     -2.910213   -0.320573    1.364764
H     -2.755127   -2.293133    0.411633
