21

C      0.072181   -0.925793   -0.367804
C     -0.218089    1.142730    0.807196
C     -1.269451   -0.913336   -0.717841
C     -1.567399    1.139598    0.445676
C      0.585299    0.098998    0.389402
C     -2.087248    0.113966   -0.313835
C      2.028175    0.060630    0.750664
C      2.862075    0.420195   -0.405342
N     -3.446499    0.142879   -0.658585
O      2.353055   -1.227500    1.175748
O      4.068922    0.723452   -0.315278
O      2.287399    0.425538   -1.664200
Na     0.000000    0.000000    0.000000
H      0.706292   -1.756176   -0.701541
H      0.202578    1.937810    1.400686
H     -1.637828   -1.735301   -1.313672
H     -2.199514    1.955495    0.771175
H      2.163638    0.738269    1.617710
H     -3.821273    0.217186   -1.631889
H     -4.150997    0.085712    0.117995
H      3.068683   -1.616011    0.613736
