21

C     -1.856043    1.019791    0.595235
C     -1.323845   -1.254819   -0.082162
C      0.318108    0.610103   -0.402294
C     -0.713431    0.005226    0.490925
C      1.527630   -0.267129   -0.616235
C      2.222865   -0.573502    0.645889
O      2.407004    0.438291   -1.438163
O      3.133861   -1.430522    0.646627
O      1.903601    0.054618    1.834569
K      0.000000    0.000000    0.000000
H     -2.388453    0.910338    1.550815
H     -1.466735    2.058789    0.526342
H     -2.562759    0.901123   -0.249721
H     -0.654331   -2.118066   -0.037461
H     -1.679823   -1.075702   -1.120390
H     -2.231633   -1.476742    0.519431
H     -0.155034    0.897231   -1.352137
H      0.676075    1.541322    0.073523
H     -0.394022   -0.200962    1.511401
H      1.270859   -1.204739   -1.155375
H      1.966104    1.165351   -1.940819
