21

C     -0.818388    1.236607    0.845758
C     -2.237251   -0.553545    0.014316
C      0.216473   -0.769176   -0.311005
C     -0.888031    0.178104   -0.179443
C      1.585768   -0.228929   -0.642298
C      2.164033    0.614644    0.401277
O      2.472750   -1.199182   -1.070774
O      3.009156    1.515635    0.128466
O      1.821633    0.454484    1.718499
K      0.000000    0.000000    0.000000
H     -1.790889    1.845438    0.852802
H      0.006677    1.931387    0.628871
H     -0.721030    0.838240    1.859760
H     -2.322934   -0.706277    1.103727
H     -3.022286    0.149070   -0.333838
H     -2.246453   -1.505511   -0.541307
H     -0.013068   -1.544399   -1.095184
H      0.300858   -1.388152    0.630600
H     -0.986536    0.726429   -1.179074
H      1.420831    0.473108   -1.557132
H      2.048685   -2.067975   -1.274021
