24

C     -2.656379    1.107245   -0.285569
C     -2.472201   -0.129698    0.539831
C     -1.277692   -0.943115    0.102557
C     -0.002063   -0.112146    0.225820
C      1.203742   -0.904589   -0.205507
C      2.445497   -0.082619   -0.078850
C      2.415917    1.142917   -0.904165
O      3.565567   -0.857981   -0.460955
O      3.016023    1.195067   -2.003372
O      1.726670    2.270163   -0.491388
Na     0.000000    0.000000    0.000000
H     -1.942642    1.900495    0.016330
H     -3.695087    1.481577   -0.173481
H     -2.447015    0.838030   -1.353670
H     -3.368942   -0.775101    0.531143
H     -2.279768    0.153197    1.607522
H     -1.209302   -1.874106    0.678277
H     -1.418535   -1.161476   -0.980958
H     -0.071603    0.789836   -0.395027
H      0.162450    0.199337    1.269816
H      1.244655   -1.838861    0.387368
H      1.111645   -1.239079   -1.273088
H      2.636590    0.146545    1.004478
H      3.312471   -1.305640   -1.312475
