33

C     -3.333479   -0.272158    1.024237
C     -2.362134   -1.133115    0.263579
C     -2.140779   -0.627243   -1.153012
C      2.415359   -0.973324   -0.872995
C      1.150423   -0.432153   -0.979435
C      2.813441    0.087515    1.204301
C      3.250485   -0.728387    0.197458
C      0.690575    0.397109    0.033238
C     -1.593484    0.769465   -1.064650
C      1.526132    0.641325    1.100123
C     -1.312587    1.400353   -2.368313
N     -0.602636    0.930820   -0.060349
N      4.535459   -1.304723    0.262507
N      1.170748    1.470667    2.195819
O     -1.091374    0.717721   -3.393562
O     -1.279814    2.783013   -2.520597
O      5.367886   -1.068366    1.315295
O      4.915444   -2.041662   -0.657074
O      1.648240    1.157155    3.475685
O      0.483270    2.491972    2.082379
Na     0.000000    0.000000    0.000000
H     -2.827146    0.463864    1.688356
H     -3.977691   -0.896883    1.697495
H     -3.949150    0.327337    0.309370
H     -1.425310   -1.175035    0.835246
H     -2.748903   -2.186259    0.227843
H     -3.154559   -0.555715   -1.672166
H     -1.581330   -1.341342   -1.741058
H      2.773299   -1.625588   -1.673057
H      0.588417   -0.686955   -1.866717
H      3.451976    0.279111    2.028804
H     -2.512834    1.375692   -0.689273
H     -0.887942    1.550203    0.770523
