19

C     -0.152991    0.264160   -0.405903
C     -1.395933    0.358555    0.421123
C     -1.622468   -0.891460    1.175019
C      2.276552   -0.092842   -0.148126
N     -2.563452    0.623086   -0.435257
N      2.391465   -0.631744   -1.296511
N      0.994036    0.043911    0.436555
O     -0.977228   -1.112571    2.223837
O     -2.559238   -1.789979    0.682994
O      3.404305    0.368111    0.547604
Na     0.000000    0.000000    0.000000
H     -0.027309    1.226841   -0.949459
H     -0.239937   -0.538391   -1.193004
H     -1.346457    1.233273    1.114856
H     -2.641896    1.648294   -0.574900
H     -2.316480    0.214242   -1.380402
H      1.613331   -0.986032   -1.851642
H      0.865226   -0.005318    1.465560
H      4.298474    0.067863    0.167659
