45

C      4.707103    0.157897    1.949595
C      5.272807    0.541887    0.588962
C      4.914823   -0.563921   -0.372663
C      3.440689   -0.717313   -0.438015
C      2.761440    0.546031   -0.912056
C      1.273069    0.221500   -0.934835
C      0.447152    1.371180   -1.379692
C     -4.979877   -0.039849   -0.651699
C     -3.658599    0.295178   -0.808085
C     -4.514466   -0.604240    1.634582
C     -5.388887   -0.492802    0.594130
C     -2.729594    0.197281    0.223908
C     -1.007190    0.986716   -1.385312
C     -3.174280   -0.250964    1.430825
C     -1.147036   -0.184241   -2.321107
N     -1.396205    0.560824   -0.065786
N     -6.747301   -0.839512    0.758997
N     -2.299689   -0.383225    2.529559
O     -1.308708   -1.359296   -1.887168
O     -1.103229   -0.014557   -3.701590
O     -7.180648   -1.295864    1.987387
O     -7.544401   -0.735655   -0.187652
O     -2.488551   -1.406062    3.473450
O     -1.353544    0.384523    2.748911
Na     0.000000    0.000000    0.000000
H      5.145458    0.859885    2.681707
H      4.997189   -0.899719    2.144679
H      3.620560    0.273947    1.945368
H      4.830884    1.494470    0.268116
H      6.386369    0.608744    0.640981
H      5.286788   -0.357240   -1.401143
H      5.341663   -1.540169   -0.012432
H      2.998105   -1.065212    0.539324
H      3.212039   -1.543004   -1.173260
H      2.888045    1.352950   -0.148027
H      3.138288    0.907339   -1.864603
H      1.160865   -0.586204   -1.696853
H      1.019366   -0.147999    0.046900
H      0.747878    1.742878   -2.386817
H      0.550113    2.268937   -0.709640
H     -5.638274    0.063009   -1.498147
H     -3.328219    0.658102   -1.775029
H     -4.818756   -0.948800    2.588993
H     -1.644268    1.823985   -1.758685
H     -0.688971    0.519703    0.693924
