39

C     -6.647309   -0.362380   -0.635381
C      6.467432    1.289591   -0.554076
C     -5.859248   -0.874175    0.376587
C     -6.094304    0.506155   -1.541560
C      6.309142    0.351196    0.435693
C      5.324608    1.684879   -1.233228
C     -4.540219   -0.512911    0.466941
C     -4.763260    0.867115   -1.445612
C      5.063981   -0.166352    0.730572
C      4.093031    1.169283   -0.937529
C     -0.513468    0.478846    0.890677
C     -3.987507    0.354240   -0.437550
C      3.942426    0.222565    0.063001
C      0.252487   -0.265425   -0.205100
C     -2.592419    0.713816   -0.312018
C      2.603290   -0.320857    0.366141
C     -0.032085   -1.714946   -0.127465
N     -1.911796    0.213287    0.639880
N      1.614115    0.077183   -0.283647
O     -2.037302    1.602729   -1.244831
O      2.491795   -1.264419    1.373268
O     -1.210635   -2.161277    0.032934
O      0.976156   -2.649501   -0.227934
Na     0.000000    0.000000    0.000000
H     -7.690750   -0.674944   -0.671565
H      7.446356    1.687324   -0.775870
H     -6.254842   -1.567633    1.119557
H     -6.736390    0.895366   -2.329525
H      7.186965    0.014102    0.993938
H      5.446377    2.430800   -2.020911
H     -3.952301   -0.947166    1.290860
H     -4.387309    1.559199   -2.195534
H      4.942002   -0.918449    1.524853
H      3.198993    1.481943   -1.472632
H     -0.258896    1.539446    0.903782
H     -0.244297   -0.004291    1.847220
H     -0.221542    0.113836   -1.170642
H      1.715848   -1.277030    2.016906
H      0.860873   -3.571145    0.187383
