15

C      0.785966   -0.115189    0.673142
C     -0.424960   -0.333027   -0.220383
C     -0.849412    1.018386   -0.706637
N      1.867592    0.513691   -0.060764
N     -1.542804   -0.863695    0.533273
O     -1.614517    1.137704   -1.700837
O     -0.427347    2.190243   -0.095319
Na     0.000000    0.000000    0.000000
H      1.124519   -1.062967    1.141877
H      0.527809    0.571542    1.508180
H     -0.126670   -0.978440   -1.068617
H      2.531261   -0.231391   -0.386413
H      1.475661    1.061638   -0.857692
H     -1.157944   -1.449625    1.321742
H     -2.169155   -1.458869   -0.081553
