67

C      4.205595   -0.150613    1.578184
C     -3.559034    2.029305   -0.599543
C     -2.191941   -3.976339    1.335840
C     -1.622861   -3.098816    0.437859
C      4.560884    0.391635    2.815217
C     -4.027507    3.123748   -1.330398
C      2.610814    1.547238    1.308302
C     -1.971872    3.422690    0.445731
C     -3.284405   -2.156637    2.361817
C      3.172245   -1.426853   -2.481344
C     -0.279289   -2.635957   -3.441427
C      3.234563    0.422681    0.824415
C     -2.528672    2.150612    0.298269
C     -3.035937   -3.511690    2.315876
C     -1.876834   -1.774399    0.496823
C      1.710706   -1.666288   -2.496976
C      3.921582    1.538629    3.303553
C     -3.434772    4.349416   -1.137693
C      1.094077   -2.433421   -3.469145
C      2.939695    2.111937    2.534150
C     -2.395825    4.525420   -0.246843
C     -1.067984   -2.076533   -2.442106
C      3.571719   -1.278365   -0.996171
C     -2.728706   -1.262624    1.477655
C     -1.296950   -0.738856   -0.438781
C     -0.452759   -1.300698   -1.457596
C     -0.792432    0.343551    0.434156
C      2.841911   -0.100429   -0.484660
C     -1.988206    1.029684    1.084878
C      0.896284   -1.114308   -1.503356
O     -3.629011   -4.390765    3.244608
O      4.318610    2.037798    4.549365
O     -3.886572    5.453426   -1.856122
O      1.858050   -3.002526   -4.479577
O      2.298902    3.243178    3.000564
O     -1.831151    5.784089   -0.088466
O     -2.430084   -2.319793   -2.476740
O      4.963041   -1.183408   -0.914073
O     -0.089624   -0.230108    1.531272
O     -2.980675    0.122585    1.522796
O      1.453364   -0.344847   -0.517669
H      4.763104   -1.048959    1.305420
H     -4.060186    1.092906   -0.777237
H     -1.964931   -5.021885    1.255588
H     -0.944914   -3.456215   -0.352496
H      5.331221   -0.049270    3.430204
H     -4.840590    3.009978   -2.034385
H      1.829772    2.056674    0.762781
H     -1.165412    3.530956    1.145177
H     -3.960845   -1.791213    3.148611
H      3.664313   -2.388343   -2.792736
H      3.490598   -0.564404   -3.067564
H     -0.745350   -3.239957   -4.211008
H      3.240190   -2.206002   -0.501304
H     -2.209432   -0.316596   -0.961667
H     -0.233127    1.151665   -0.047633
H      3.013848    0.728774   -1.263878
H     -1.555871    1.435531    2.069379
H     -4.532813   -4.763714    2.943955
H      3.951620    2.836991    5.009749
H     -4.637849    5.382798   -2.516227
H      2.849738   -2.873567   -4.538567
H      2.536920    3.648432    3.883313
H     -2.182773    6.557579   -0.623214
H     -3.029867   -1.933300   -1.776700
H      5.333566   -2.023444   -1.285534
H     -0.209869   -1.208761    1.505825
