41

C      4.276887   -1.078679   -0.195250
C      4.130318    0.117965   -1.078068
C      2.931775   -1.612898    0.195089
C     -3.881432   -0.386605   -0.528982
C      3.279510    1.146302   -0.375221
C     -2.684311   -1.199872   -0.179901
C     -0.039835   -0.349692    1.767996
C     -2.465617    1.482194    0.121756
C     -0.357836   -1.534525   -0.402685
C      0.554918   -1.345206    0.763119
C     -3.578461    1.065137   -0.781306
C     -0.276516    0.923670    1.006683
C      1.889467   -0.820039    0.376336
C     -1.203214    0.708135   -0.159601
C      1.045554    1.464345    0.570360
N     -1.432547   -0.636674   -0.508990
N      2.078849    0.569044    0.189414
O     -4.715478    1.821435   -0.437296
O      1.227137    2.719262    0.546207
H      4.851485   -1.841261   -0.722914
H      4.774384   -0.757150    0.747904
H      5.124826    0.544403   -1.259731
H      3.704042   -0.209972   -2.036320
H      2.842559   -2.691556    0.325771
H     -4.441738   -0.763461   -1.419472
H     -4.637622   -0.421625    0.308881
H      3.864211    1.577431    0.457336
H      2.985291    1.970127   -1.047021
H     -2.777045   -2.175487   -0.744634
H     -2.759255   -1.519144    0.901120
H     -0.924685   -0.760949    2.249960
H      0.769437   -0.160334    2.510508
H     -2.252094    2.566415   -0.070002
H     -2.760102    1.357075    1.175565
H     -0.766783   -2.586051   -0.402457
H      0.250018   -1.477305   -1.351228
H      0.655276   -2.299528    1.332389
H     -3.337550    1.276918   -1.838536
H     -0.679712    1.666639    1.744487
H     -0.722835    1.217299   -1.047175
H     -4.541274    2.434218    0.305275
