43

C     -3.946022    1.401112   -0.013872
C     -4.030411    0.388352    1.073378
C      3.733313   -0.861279    1.023512
C     -2.848961    1.136414   -1.018959
C      2.258280   -1.253542    1.209739
C      3.831860    0.572627    0.545176
C     -2.693449   -0.181526    1.490414
C     -0.341639   -1.012978   -1.566038
C     -0.676857   -1.173064    0.852173
C      0.235826   -1.580269   -0.259985
C     -0.525454    0.479929   -1.418571
C      1.631359   -1.142182   -0.151794
C     -1.576248    0.693162   -0.353967
C      3.211424    0.623052   -0.837277
C      0.760118    1.056022   -0.978440
N     -1.893170   -0.565142    0.341326
N      1.825302    0.193731   -0.662509
O      3.298272    1.862307   -1.423082
O      0.898449    2.293434   -0.888392
H     -4.911885    1.438273   -0.573824
H     -3.789868    2.442749    0.365929
H     -4.704272   -0.457824    0.816657
H     -4.467022    0.886309    1.978318
H      4.169043   -0.909235    2.058035
H      4.250900   -1.567305    0.363803
H     -2.714999    2.077068   -1.596385
H     -3.196764    0.303068   -1.669251
H      2.259009   -2.308323    1.527107
H      1.862813   -0.550291    1.948670
H      4.868482    0.903852    0.576011
H      3.158730    1.174991    1.206909
H     -2.099330    0.567594    2.054980
H     -2.890451   -1.087613    2.093941
H      0.341534   -1.218914   -2.418294
H     -1.344235   -1.469296   -1.695149
H     -1.006268   -2.050433    1.460027
H     -0.234574   -0.457219    1.566342
H      0.162173   -2.689575   -0.377330
H     -0.843253    0.891149   -2.394392
H      2.257990   -1.804791   -0.823374
H     -1.271752    1.421899    0.417981
H      3.704334   -0.183063   -1.434702
H      3.287670    1.716772   -2.414844
