82

C     -5.948364    2.023535   -0.418072
C     -5.742479    0.755485    1.636555
C      5.375277    0.850115   -1.077972
C      5.361055   -1.549945   -0.711352
C     -3.616354   -0.641111   -2.457458
C      2.882551    2.100761    0.350368
C     -0.339714   -1.920326    1.037197
C      0.197620    0.742584   -1.594267
C      2.866352   -0.531046   -1.462674
C      4.369823   -0.319855    2.273093
C      3.174638    0.543178    2.166783
C      1.532020   -1.243517   -1.251066
C     -5.673954   -0.385057   -0.518642
C     -4.692338   -1.530366   -0.461451
C     -2.470534   -2.278708   -1.080554
C     -1.062576   -1.838344   -1.281727
C     -1.134938    1.213235    1.028175
C     -3.762985    1.121038    0.172406
C     -1.569924    0.077714    0.222623
C     -2.846775    0.035724   -0.192387
C      0.309258    1.490238    1.105821
C      3.400790   -0.333689   -0.057483
C      5.435427   -0.096901    1.251272
C      1.200371    0.340110    0.685329
C     -5.206488    0.828206    0.198994
C      4.883023   -0.200752   -0.132327
C     -3.362170   -1.083006   -1.027335
C      2.653098    0.673774    0.724593
C     -0.607194   -1.019952   -0.129066
C      0.654547   -0.240732   -0.553750
O      0.675265    1.769025    2.447418
O      6.149095    1.103788    1.467475
H     -7.028749    1.880318   -0.426257
H     -5.599698    2.947353    0.071771
H     -5.564073    2.071744   -1.478564
H     -6.644737    0.098944    1.672474
H     -6.069279    1.750887    1.983301
H     -4.931693    0.417437    2.281065
H      4.555098    1.334498   -1.669134
H      6.063733    0.439726   -1.877761
H      6.022695    1.625243   -0.570512
H      4.677531   -2.356696   -0.446024
H      6.356213   -1.776291   -0.251568
H      5.547824   -1.452756   -1.803004
H     -2.816414   -1.023067   -3.150206
H     -4.564331   -1.007096   -2.859614
H     -3.512632    0.464019   -2.466965
H      2.544551    2.401819   -0.634331
H      3.971241    2.385691    0.402045
H      2.442598    2.721218    1.190790
H     -0.615178   -1.460834    2.023339
H     -1.023614   -2.818101    0.970503
H      0.677332   -2.364298    1.044605
H      0.349848    1.789683   -1.358108
H     -0.901380    0.650292   -1.840590
H      0.695559    0.577462   -2.595757
H      3.536800   -1.183153   -2.021245
H      2.694267    0.462027   -1.915418
H      4.128721   -1.414483    2.291620
H      4.835184   -0.122569    3.276089
H      2.357876    0.059091    2.779748
H      3.366896    1.503930    2.636919
H      1.111429   -1.412714   -2.264894
H      1.720825   -2.158314   -0.693357
H     -5.946699   -0.119544   -1.569173
H     -6.613783   -0.739366   -0.046909
H     -5.117288   -2.376593   -1.006556
H     -4.544590   -1.794406    0.595664
H     -2.761441   -2.856005   -2.008647
H     -2.632439   -2.993095   -0.255620
H     -0.429119   -2.774453   -1.282639
H     -1.000316   -1.336427   -2.269834
H     -1.675077    2.121073    0.618918
H     -1.551082    1.089232    2.052953
H     -3.481261    1.452704    1.218208
H     -3.549228    1.964349   -0.548195
H      0.537998    2.429858    0.560090
H      3.225825   -1.326154    0.464506
H      6.216400   -0.894622    1.442302
H      1.059081   -0.424764    1.511335
H     -0.092710    2.106117    2.966118
H      6.887865    0.985882    2.090832
