82

C      5.927548    2.250407   -0.003179
C      4.392657    1.567946    1.756758
C     -5.431050   -1.747065   -0.250698
C     -5.280558    0.039525   -1.876344
C      4.234041   -1.142736   -2.025212
C     -2.761882    1.752507   -1.221391
C      0.645647   -1.546955    1.446765
C     -0.255990   -0.213637   -1.966295
C     -2.788746   -1.376039   -1.308125
C     -4.473930    0.844004    1.626802
C     -3.226459    1.497957    1.150540
C     -1.476509   -1.845649   -0.656022
C      5.600288   -0.133882    0.395729
C      4.684663   -1.307728    0.409850
C      2.718888   -2.427016   -0.565519
C      1.257394   -2.188720   -0.808313
C      1.056230    1.509529    0.076563
C      3.784449    1.267110   -0.610379
C      1.608606    0.166501   -0.104860
C      2.892654    0.068708   -0.427398
C     -0.327763    1.569068    0.622566
C     -3.402766   -0.453952   -0.264032
C     -5.485453    0.537498    0.578226
C     -1.212462    0.418589    0.294179
C      4.893655    1.200227    0.387373
C     -4.865625   -0.328055   -0.477453
C      3.585369   -1.227639   -0.640029
C     -2.629693    0.816795   -0.090233
C      0.728577   -1.043023    0.068241
C     -0.600615   -0.628487   -0.569087
O     -0.214471    1.801383    2.016154
O     -6.090266    1.694188    0.040461
H      6.887100    1.942712    0.441941
H      5.610810    3.258823    0.339112
H      6.040553    2.194619   -1.107224
H      5.193239    1.373526    2.504934
H      3.479763    0.966054    1.952389
H      4.097818    2.636036    1.757935
H     -6.495432   -1.596532    0.036977
H     -5.452814   -2.303634   -1.211109
H     -4.875251   -2.269361    0.541940
H     -4.615312   -0.484338   -2.589060
H     -5.406172    1.105970   -2.054724
H     -6.301510   -0.412167   -2.062190
H      3.502458   -0.589305   -2.664818
H      4.448796   -2.150049   -2.430665
H      5.164125   -0.573180   -2.018410
H     -3.019056    1.261851   -2.206430
H     -3.670937    2.405738   -1.038384
H     -1.957869    2.477266   -1.370585
H      1.192216   -0.835933    2.135104
H     -0.330694   -1.731760    1.877942
H      1.227955   -2.505174    1.577808
H      0.856223   -0.084639   -2.134433
H     -0.701650    0.700144   -2.335132
H     -0.528841   -1.015614   -2.717256
H     -2.600637   -0.858319   -2.257435
H     -3.418090   -2.268173   -1.387590
H     -4.301046   -0.085488    2.214812
H     -4.954220    1.555108    2.351114
H     -3.487478    2.574098    0.925921
H     -2.526084    1.541162    1.988498
H     -1.035439   -2.648144   -1.271821
H     -1.766467   -2.269590    0.308752
H      6.373266   -0.200809   -0.418614
H      6.193394   -0.165157    1.343354
H      5.280401   -2.215653    0.224799
H      4.185848   -1.369451    1.400537
H      3.057432   -3.160315   -1.326479
H      2.852884   -2.933023    0.423444
H      0.740065   -3.109047   -0.402286
H      0.965851   -2.098303   -1.850513
H      1.082203    2.035453   -0.901779
H      1.731243    2.119527    0.746464
H      4.250070    1.210243   -1.638132
H      3.271387    2.218046   -0.563390
H     -0.765796    2.551950    0.267478
H     -3.280325   -1.015454    0.713691
H     -6.339792    0.021433    1.111572
H     -1.385780   -0.111333    1.288111
H     -0.266488    1.005970    2.555170
H     -5.688349    2.512854    0.377240
