31

C     -3.489100   -2.338230   -0.312217
C     -2.628329   -1.093143   -0.462334
C      4.593298   -0.186373   -1.001910
C      4.552195    0.732354    0.051331
C      3.436248   -0.760753   -1.482956
C     -2.346559   -0.571518    0.906728
C      3.337224    1.051144    0.596922
C      2.239881   -0.410882   -0.904736
C      2.148676    0.489919    0.135587
C     -1.491606    0.676350    0.894042
C      0.886086    0.855714    0.741829
C     -2.114084    1.783733    0.160694
N     -0.196935    0.331422    0.306777
O      0.833635    1.759215    1.779345
O     -3.227953    2.222952    0.511814
O     -1.477192    2.350216   -0.921849
K      0.000000    0.000000    0.000000
H     -2.899905   -3.264792   -0.299093
H     -4.114053   -2.233006    0.621015
H     -4.190976   -2.387461   -1.178609
H     -3.166756   -0.380072   -1.111093
H     -1.681717   -1.432178   -0.932308
H      5.579824   -0.407199   -1.401585
H      5.433797    1.194229    0.445470
H      3.480999   -1.463502   -2.290608
H     -1.830438   -1.370779    1.476206
H     -3.277268   -0.348115    1.466181
H      3.259989    1.757812    1.413897
H      1.337790   -0.876182   -1.299719
H     -1.325963    1.014087    1.937011
H     -1.660807    3.305036   -1.241352
