35

C      6.046044   -0.558716    0.193908
C      5.495606    0.701320    0.117308
C      5.209721   -1.652799    0.267445
C      4.146502    0.914805    0.111043
C      3.855033   -1.448669    0.261800
C     -2.182367    0.971079   -0.778098
C      1.823487   -0.035520    0.183478
C      3.299873   -0.190762    0.185359
C     -2.849673   -0.312853   -0.367900
C     -2.514298   -0.577270    1.064630
C     -5.153959    0.541805   -0.072200
C     -0.028674    0.063843   -1.374984
N     -4.662571    1.478918    0.663426
N     -0.738240    0.779021   -0.598734
N     -4.245280   -0.389196   -0.642060
O     -3.403172   -0.493778    1.947591
O     -1.244290   -0.916900    1.472871
O     -6.540997    0.442081   -0.304296
O     -0.668436   -0.565464   -2.448676
O      1.317564   -0.064477   -1.138044
Na     0.000000    0.000000    0.000000
H      7.125881   -0.662579    0.194695
H      6.166417    1.548563    0.060233
H      5.660393   -2.639175    0.327307
H      3.679372    1.873400    0.053027
H      3.193307   -2.305233    0.319421
H     -2.372553    1.267161   -1.807646
H     -2.435958    1.797560   -0.068001
H      1.393084   -0.936834    0.709719
H      1.509729    0.866090    0.742183
H     -2.343294   -1.156442   -0.929677
H     -5.332216    2.160239    1.079932
H     -4.645598   -1.142426   -1.278761
H     -7.127021    0.778657    0.468492
H     -1.433416   -0.135450   -2.948006
