31

C      3.698006    1.552032    1.525878
C      1.506416    0.426182    1.864213
C      2.692699   -0.054885   -0.117309
C      0.493721   -0.436586    1.455699
C      1.724986   -0.904799   -0.549790
C     -2.160105    1.049300   -1.200840
C      2.615093    0.620155    1.073660
C      0.601769   -1.097700    0.256989
C     -2.477154   -0.268998   -0.522942
C     -3.937343   -0.481444   -0.422490
N     -0.717946    1.174354   -1.255792
N     -1.796920   -1.323321   -1.192402
O     -4.365850   -1.329497    0.389039
O     -4.780065    0.253606   -1.218176
O     -0.052988   -3.319778   -1.029316
O     -1.273362   -2.766264    0.984310
S     -0.662332   -2.187127   -0.269022
Na     0.000000    0.000000    0.000000
H      4.413226    0.979721    2.150116
H      4.159497    2.037338    0.660405
H      3.236989    2.354994    2.149200
H      1.441987    0.947983    2.789278
H      3.591670    0.122168   -0.725626
H     -0.354036   -0.549784    2.123218
H      1.803320   -1.424855   -1.485890
H     -2.561523    1.083721   -2.223381
H     -2.572105    1.878987   -0.563932
H     -2.095346   -0.216871    0.528625
H     -0.382028    2.136362   -1.098658
H     -0.406320    0.828697   -2.179215
H     -1.383956   -1.083691   -2.107957
