31

C      4.099324    1.868729   -0.173474
C      2.847634   -0.079740    0.770836
C      2.092861    0.808368   -1.266156
C      1.842907   -1.020299    0.741219
C      1.067756   -0.111695   -1.346398
C     -2.405876    0.618004    0.793961
C      2.996694    0.856846   -0.231754
C      0.944753   -1.032621   -0.331930
C     -2.304507   -0.482060   -0.225633
C     -3.658662   -0.836622   -0.730837
N     -2.988520    1.816913    0.287684
N     -1.753173   -1.667664    0.380399
O     -4.207219   -0.038526   -1.524436
O     -4.318684   -1.994310   -0.361160
O      0.121608   -3.468057    0.318189
O     -0.655833   -2.611478   -1.799560
S     -0.335100   -2.210812   -0.397726
Na     0.000000    0.000000    0.000000
H      3.704809    2.813894   -0.601807
H      4.293885    2.075371    0.916792
H      5.017118    1.516587   -0.672129
H      3.560993   -0.049417    1.597225
H      2.196113    1.528221   -2.050461
H      1.726797   -1.755425    1.529240
H      0.408528   -0.063981   -2.207338
H     -2.975606    0.300606    1.683758
H     -1.366711    0.872740    1.137340
H     -1.709124   -0.134293   -1.091258
H     -2.575890    2.155064   -0.601728
H     -4.029859    1.819609    0.287446
H     -1.637015   -1.493952    1.396284
