31

C      3.864153    1.306259   -0.422025
C      3.420702    0.340479    0.640772
C     -4.949346    0.033452   -0.084878
C     -4.125338   -1.063178   -0.112228
C     -4.409750    1.297195   -0.187151
C      1.943275    0.109115    0.655475
C     -2.774881   -0.917068   -0.239779
C     -3.048829    1.431016   -0.315120
C     -2.215096    0.332347   -0.343258
C      1.409266   -0.452624   -0.635596
C     -0.776945    0.486405   -0.479062
C      1.980441   -1.741293   -1.013155
N     -0.036268   -0.567810   -0.500782
O     -0.259753    1.770360   -0.580159
O      3.211803   -1.879694   -1.188763
O      1.162952   -2.841647   -1.184882
Na     0.000000    0.000000    0.000000
H      4.264159    0.682817   -1.272411
H      3.084924    1.984715   -0.767372
H      4.762994    1.872160   -0.053385
H      3.981011   -0.595017    0.603233
H      3.674829    0.812753    1.631659
H     -6.016335   -0.088855    0.016186
H     -4.577712   -2.042313   -0.029895
H     -5.031699    2.164443   -0.168192
H      1.389202    1.023915    0.898909
H      1.728944   -0.634854    1.450673
H     -2.106199   -1.775498   -0.263306
H     -2.589967    2.423596   -0.398608
H      1.561030    0.324816   -1.441281
H      1.478433   -3.795993   -1.010485
