25

C     -0.942838    0.332285   -2.001044
C      2.986636   -0.404411    0.875656
C      1.976034   -0.146056    1.769405
C      2.718389   -0.525569   -0.459117
C      0.676029   -0.005546    1.329748
C      1.414341   -0.384731   -0.901069
C     -2.413875   -1.567301    0.649894
C      0.392856   -0.124053   -0.001483
C     -1.605648    1.196988    0.154012
C     -1.007579    0.024478   -0.498746
N     -1.760119   -1.175800   -0.360502
O     -3.081156   -2.800592    0.541415
O     -2.689678    1.189189    0.792489
O     -0.930013    2.406871    0.063783
Na     0.000000    0.000000    0.000000
H     -0.775055   -0.587873   -2.584542
H     -0.125305    1.055263   -2.121950
H     -1.886652    0.842678   -2.248507
H      3.995076   -0.509323    1.250525
H      2.199114   -0.051729    2.826128
H      3.498140   -0.730434   -1.194488
H     -0.099862    0.196349    2.045275
H      1.210497   -0.484400   -1.978341
H     -2.483890   -1.016030    1.569104
H     -1.265442    3.269746    0.482356
