31

C     -5.021600    0.935072    1.158944
C     -4.170812    0.192419    1.966843
C     -4.552637    1.323334   -0.074681
C     -2.901631   -0.138659    1.536925
C     -3.283406    0.985906   -0.491282
C      3.025244   -1.173074   -0.455713
C     -1.051068   -0.105002   -0.176914
C     -2.421115    0.245554    0.301559
C      3.904789   -0.015557   -0.864341
C      3.968754    1.030968    0.177562
C      0.899281   -1.331274    0.672875
N      3.536491    0.537853   -2.139311
N      1.666790   -0.790023   -0.195319
O      3.118595    1.141020    1.089972
O      5.017188    1.932914    0.144866
O      1.290811   -2.384139    1.494784
O     -0.380866   -0.856263    0.809681
Na     0.000000    0.000000    0.000000
H     -6.012315    1.180738    1.521406
H     -4.544990   -0.117185    2.950792
H     -5.207371    1.899434   -0.706064
H     -2.243602   -0.724563    2.185991
H     -2.886848    1.282911   -1.468539
H      3.472509   -1.630679    0.454414
H      3.023209   -1.964585   -1.227522
H     -0.478859    0.787705   -0.475553
H     -1.144073   -0.751114   -1.074422
H      4.940688   -0.435676   -0.963856
H      2.576941    0.318501   -2.422828
H      3.755177    1.550788   -2.227500
H      2.104726   -2.927323    1.237932
