30

C      4.239054   -0.141769   -0.618208
C      3.044614   -0.951495   -0.234796
C     -2.052781    1.548137   -0.674245
C     -0.811826    0.971145   -0.569236
C     -3.068087   -0.357940    0.315617
C     -3.183327    0.895642   -0.236888
C      1.785780   -0.121277   -0.383349
C     -0.669874   -0.303745   -0.010011
C     -1.797483   -0.950321    0.423553
C      1.923611    1.069511    0.530913
N      0.623388   -0.857980    0.091214
N     -4.451192    1.528690   -0.364037
N     -1.768852   -2.242776    1.006624
O      2.581931    2.084987    0.223953
O      1.307464    1.082214    1.782654
O     -4.526115    2.780329   -0.921016
O     -5.508310    0.978577    0.017537
O     -2.680468   -2.586467    1.993147
O     -0.966823   -3.114722    0.663396
Na     0.000000    0.000000    0.000000
H      5.172931   -0.737657   -0.682479
H      4.047822    0.358237   -1.596723
H      4.414255    0.644722    0.125764
H      2.973224   -1.829783   -0.928950
H      3.100001   -1.343835    0.783986
H     -2.174741    2.550578   -1.112980
H      0.030462    1.530771   -0.930730
H     -3.945801   -0.893744    0.668544
H      1.571243    0.191367   -1.413593
H      0.789902   -1.781395    0.502598
