30

C     -3.311278    1.878132   -0.102331
C     -2.179606    0.999358   -0.503470
C      2.185898    1.102978    0.816798
C      0.867993    0.641785    0.715636
C      2.840212   -0.839408   -0.334282
C      3.189765    0.336599    0.275772
C     -1.928479   -0.120331    0.494306
C      0.540742   -0.544551    0.096943
C      1.532218   -1.310454   -0.442979
C     -3.167196   -0.934993    0.561417
N     -0.817406   -0.944987    0.083036
N      4.565883    0.733921    0.334876
N      1.321661   -2.541882   -1.102052
O     -4.225092   -0.561542    1.128813
O     -3.215901   -2.209071   -0.028366
O      4.920927    1.895920    0.936771
O      5.443146    0.014878   -0.166491
O      0.223013   -2.924436   -1.772422
O      2.265896   -3.392299   -1.064314
Na     0.000000    0.000000    0.000000
H     -2.993910    2.946014   -0.230077
H     -4.145049    1.733545   -0.819195
H     -3.658417    1.695625    0.941068
H     -2.406329    0.495329   -1.495941
H     -1.248482    1.549805   -0.647895
H      2.421268    2.044232    1.309556
H      0.147699    1.311256    1.186347
H      3.631601   -1.448121   -0.762747
H     -1.762515    0.300514    1.517287
H     -1.038260   -1.907819   -0.239383
