39

C     -2.252581    1.669411    1.639701
C     -2.711403   -1.937048   -0.801832
C     -4.328027   -0.122378   -0.814685
C     -2.097313    1.707443    0.147186
C      2.312639    0.142215   -0.963410
C      3.731990   -0.351942    1.063319
C      3.600683    0.821045   -1.449091
C      4.893554   -0.209003    0.165874
C     -3.049702   -0.591590   -0.154952
C     -1.899828    0.340292   -0.433917
C     -0.605046   -0.195255    0.023041
C      1.359250    0.198793    1.326412
N      0.108391    0.539619    0.795687
N      2.460495   -0.001570    0.471613
O     -0.146711   -1.456204   -0.357001
O      4.623495   -0.062170   -1.163616
S      1.473350    0.049115    2.947751
H     -1.551314    2.356784    2.167499
H     -2.010264    0.643430    2.012758
H     -3.269141    1.949199    1.977228
H     -2.256255   -2.635406   -0.092150
H     -3.624944   -2.411381   -1.222188
H     -2.054754   -1.728798   -1.685735
H     -4.066169    0.190835   -1.837321
H     -4.834077    0.671399   -0.236230
H     -5.029151   -0.991511   -0.824080
H     -2.901964    2.281816   -0.353883
H     -1.154827    2.281055   -0.060806
H      2.340617   -0.888525   -1.383067
H      1.420917    0.701766   -1.239964
H      3.635539   -1.383674    1.468533
H      3.887151    0.320740    1.949063
H      3.759958    1.755401   -0.849994
H      3.569925    1.004867   -2.526387
H      5.554260   -1.117645    0.272590
H      5.558534    0.652530    0.468421
H     -3.213853   -0.776653    0.905241
H     -1.803187    0.451912   -1.554199
H      0.569765   -1.915542    0.202591
