32

C      3.766819    0.516642    0.666470
C     -3.148206   -0.811909   -0.380747
C      3.204306    0.133899   -0.700838
C      2.466218   -1.172200   -0.545158
C      1.334860   -1.091104    0.431765
C      0.290384   -0.073637    0.039702
C     -0.777699   -0.105217    1.110369
C     -1.887453    0.873047    0.839572
C     -2.578727    0.587761   -0.470651
C     -3.739131    1.509123   -0.624920
O     -4.139160    2.190885    0.333453
O     -4.363841    1.591874   -1.855990
Na     0.000000    0.000000    0.000000
H      4.636090    1.190116    0.534680
H      4.144323   -0.432378    1.110101
H      2.964438    0.987125    1.253847
H     -4.037960   -0.914554   -1.008662
H     -2.379330   -1.510629   -0.814235
H     -3.332032   -1.101362    0.661269
H      2.586384    0.943957   -1.090835
H      4.075959   -0.035135   -1.365511
H      2.125246   -1.552042   -1.521449
H      3.195718   -1.907808   -0.149111
H      1.711587   -0.828428    1.438662
H      0.829878   -2.079127    0.439223
H      0.758950    0.923950    0.059690
H     -0.133439   -0.266255   -0.948607
H     -0.366302    0.131089    2.107960
H     -1.175511   -1.138976    1.163503
H     -1.492452    1.915768    0.836805
H     -2.652194    0.840473    1.640708
H     -1.887721    0.685051   -1.318897
