39

C     -2.979359   -0.119889    2.634113
C     -2.860720   -0.951589   -1.648082
C     -3.367477    1.253127   -0.577094
C     -1.845871    0.361928    1.770259
C      2.430658   -0.860775    0.154426
C      3.693083    0.775589   -1.198590
C      3.594525   -1.003419    1.085221
C      4.756764   -0.196623   -0.728836
C     -3.022312   -0.191975   -0.347343
C     -1.771588   -0.357582    0.467125
C     -0.564719    0.050186   -0.290397
C      1.368255    1.327614   -0.449376
N      0.209823    0.923278    0.255914
N      2.468382    0.434071   -0.494877
O     -0.266100   -0.480253   -1.543978
O      4.719123   -0.301078    0.680266
S      1.412924    2.780253   -1.178795
H     -2.777630   -1.163892    2.968462
H     -3.968486   -0.032113    2.155914
H     -3.006704    0.541762    3.529024
H     -2.200620   -1.840818   -1.489049
H     -2.423998   -0.325236   -2.440532
H     -3.822623   -1.341387   -2.030996
H     -3.939753    1.604219    0.326079
H     -4.036307    1.304053   -1.458356
H     -2.490097    1.912328   -0.663026
H     -0.909506    0.231820    2.333268
H     -1.990997    1.458712    1.604322
H      2.416520   -1.644024   -0.634528
H      1.459740   -0.924888    0.723390
H      4.002154    1.828698   -0.996994
H      3.498291    0.641185   -2.270975
H      3.813903   -2.092893    1.177675
H      3.309395   -0.635722    2.114337
H      5.753800    0.210704   -0.999996
H      4.629545   -1.171119   -1.216756
H     -3.859158   -0.655782    0.216899
H     -1.663017   -1.448203    0.682062
H      0.230157    0.099735   -2.220183
