33

C      4.887644   -0.277849   -0.174965
C      2.364272   -1.741882    0.392049
C      3.617325    0.410161    0.243042
C     -3.296096    1.153119    1.125233
C     -2.235307   -0.641150   -0.198662
C     -4.209198    1.037422   -0.102624
C     -3.618465   -1.199288   -0.231630
C      2.379219   -0.358085   -0.205404
C      1.205264    0.437916    0.188211
C     -0.829575    0.700372    1.344999
N      0.300741   -0.053879    0.960861
N     -2.085347    0.405709    0.767412
O      1.066122    1.727983   -0.273001
O     -4.621596   -0.266170   -0.240233
S     -0.725027    1.900815    2.435843
H      4.618178   -1.165836   -0.800338
H      5.482592   -0.621026    0.674814
H      5.549447    0.381657   -0.791615
H      2.803652   -1.686764    1.416619
H      2.921354   -2.458313   -0.240655
H      1.286971   -2.037756    0.475958
H      3.586699    1.407205   -0.253149
H      3.530348    0.572591    1.319658
H     -3.062403    2.212326    1.322125
H     -3.770897    0.649608    1.988762
H     -1.537604   -1.458669    0.075635
H     -1.967369   -0.229634   -1.198045
H     -5.109666    1.659794    0.078201
H     -3.650434    1.429511   -0.983263
H     -3.761150   -1.854555    0.654736
H     -3.705917   -1.867022   -1.117591
H      2.379259   -0.411384   -1.322674
H      0.206965    2.243072   -0.252583
