33

C      4.614543   -0.520742    1.358561
C      2.924682    0.675683   -0.703585
C      3.174407   -0.134457    1.639804
C     -1.736422   -0.408108   -1.343327
C     -3.454835    0.956307   -0.151016
C     -2.942138   -1.323542   -1.471546
C     -4.316242   -0.266451   -0.021967
C      2.369239   -0.242642    0.356949
C      0.948727    0.064229    0.651699
C     -1.028507    1.335425    0.293035
N      0.322554    1.008894    0.044253
N     -2.057988    0.636305   -0.392086
O      0.275162   -0.674860    1.597330
O     -3.509643   -1.390248   -0.181749
S     -1.422941    2.507743    1.359466
H      5.231132   -0.264127    2.261065
H      5.002623    0.151080    0.546827
H      4.727315   -1.577913    1.118274
H      3.546140    0.155578   -1.446427
H      3.555549    1.488894   -0.253000
H      2.058475    1.155672   -1.201661
H      2.777673   -0.834718    2.378246
H      3.149707    0.884203    2.042062
H     -0.917816   -1.010143   -0.921333
H     -1.424244    0.000253   -2.328293
H     -3.545845    1.579399    0.782009
H     -3.830222    1.613071   -0.978601
H     -2.687340   -2.325437   -1.819296
H     -3.684633   -0.816253   -2.107678
H     -4.826294   -0.327770    0.962086
H     -5.055955   -0.276400   -0.872098
H      2.451267   -1.283098   -0.022674
H     -0.688130   -0.535828    1.867527
