46

C     -0.414316   -3.321805   -0.099630
C      3.858621   -2.428173   -0.441645
C     -2.587092    3.678962   -0.992947
C     -2.858187   -2.053416    0.065629
C     -2.040744   -2.421190    1.298531
C      2.840751    2.208541    0.332031
C      2.012307   -0.367844    0.286704
C      1.117981    0.621781    0.638349
C      1.527701    1.915430    0.663206
C      3.765019    1.249338   -0.024957
C      3.336256   -0.056280   -0.045348
C     -0.283031    0.203006    0.970133
C     -1.230946    1.353167    0.964976
C     -1.918362    1.555773   -0.376692
C     -0.718708   -0.940331    0.097700
C     -2.699370    0.322618   -0.775977
C      0.572708    2.940580    1.048092
C     -2.082063   -0.861487   -0.451453
N     -0.688638   -2.225670    0.813182
O      5.081588    1.596200   -0.351444
O      0.965800    4.141770    1.066573
O      4.190579   -1.063142   -0.387903
O     -2.836663    2.585888   -0.172272
O     -0.709668    2.563329    1.373770
O     -2.192909   -0.504959   -1.790490
H     -1.278235   -3.994285   -0.238760
H     -0.125978   -2.927539   -1.080888
H      0.409406   -3.929527    0.318721
H      2.874872   -2.571973   -0.978112
H      3.669334   -2.796188    0.598342
H      4.581731   -3.037446   -0.982585
H     -3.363082    4.436740   -0.757388
H     -2.792271    3.340530   -2.045115
H     -1.557880    4.043376   -0.877212
H     -2.934869   -2.870793   -0.647120
H     -3.880284   -1.709580    0.338338
H     -2.216610   -3.469148    1.542816
H     -2.327715   -1.713289    2.086193
H      3.125844    3.246958    0.363720
H      1.736905   -1.413492    0.253753
H     -0.231359   -0.184104    2.010040
H     -2.071559    1.084955    1.672792
H     -1.209787    1.866748   -1.150657
H      0.004384   -1.049756   -0.735288
H     -3.812251    0.398194   -0.823661
H      5.390792    2.557535   -0.334634
