47

C     -1.420868   -2.921717   -0.013965
C      3.772809   -1.821845    1.429933
C     -2.075934    3.974066   -0.338422
C     -2.520797   -1.508825    1.902149
C     -1.173892   -2.196943    2.181187
C      2.720523    1.554032   -1.808121
C      1.879033   -0.473898   -0.164722
C      1.379472    1.184918   -1.752274
C      0.939081    0.172111   -0.935601
C      3.637984    0.884467   -1.020721
C      3.221155   -0.121263   -0.205599
C     -1.850573    1.668062   -0.219196
C     -2.637508    0.842253    0.777291
C     -1.454202    0.755849   -1.338190
C      0.375053    1.862099   -2.565215
C     -0.732273   -0.683381    0.589145
C     -2.061684   -0.325862    1.138852
C     -0.468928   -0.275743   -0.823094
N     -0.603734   -2.108968    0.822842
O      4.986198    1.237685   -1.060852
O      0.751197    2.793501   -3.322177
O     -0.581528   -1.363599   -1.717000
O      4.179540   -0.777496    0.578216
O     -2.618816    2.733617   -0.582339
O     -0.930554    1.440102   -2.455511
O     -2.054283    0.858230    2.074060
H     -2.263666   -2.422803   -0.493798
H     -0.752047   -3.471103   -0.730585
H     -1.874866   -3.753365    0.603848
H      3.171039   -2.574548    0.905530
H      3.232437   -1.365167    2.298338
H      4.699047   -2.300697    1.851388
H     -2.812194    4.732814   -0.684758
H     -1.142372    4.171470   -0.885821
H     -1.989799    4.111724    0.756764
H     -3.186217   -2.190350    1.329721
H     -2.999115   -1.320060    2.861406
H     -1.299063   -3.229753    2.498618
H     -0.636318   -1.542956    2.877430
H      3.017055    2.352079   -2.461918
H      1.608071   -1.277959    0.499146
H     -0.899763    2.071599    0.219316
H     -3.744321    1.053581    0.862327
H     -2.366142    0.224155   -1.681337
H      0.047923   -0.208932    1.256465
H      5.656397    0.762240   -0.497900
H     -0.122558   -1.203422   -2.554859
