78

C     10.579335    0.946268    2.263834
C      9.886473    1.893579    1.312504
C      8.792733    1.110678    0.578496
C      9.438374   -0.020203   -0.174776
C      8.386536   -0.831643   -0.916130
C      7.634634    0.000317   -1.905544
C      6.625396   -0.816986   -2.638957
C      5.622937   -1.416943   -1.687881
C      4.925418   -0.357885   -0.946299
C      3.639026   -0.157236   -0.981224
C      2.713228   -0.970781   -1.773057
C      1.725841   -1.593934   -0.800014
C      0.941711   -0.573767   -0.019025
C      0.146507    0.311918   -0.921598
C     -0.824007   -0.503947   -1.733115
C     -1.793853   -1.260298   -0.881557
C     -2.597702   -0.299759   -0.038901
C    -11.953284    0.410737    1.010066
C    -10.477733    0.494386    0.798643
C     -5.365150   -0.815736    2.517760
C     -7.177286   -0.427470    0.909250
C     -6.515846   -1.475409    1.812156
C     -3.567657   -1.053014    0.812122
N    -12.648026    1.279707    0.078598
O     -6.100942   -2.565272    1.113043
O     -3.649341   -2.302313    0.780351
O     -7.700103    3.347840    1.214264
O     -7.948991    1.652825   -0.713648
O     -4.390191   -0.358060    1.650087
O     -9.979430    1.760869    0.978640
O     -7.583820    0.673757    1.697892
P     -8.316455    1.850740    0.739664
H      9.823786    0.229689    2.632199
H     11.384627    0.437117    1.673444
H     11.009917    1.520722    3.094669
H      9.424776    2.738742    1.862371
H     10.605541    2.303549    0.582427
H      8.047255    0.725899    1.296654
H      8.248597    1.806759   -0.101509
H      9.962053   -0.681544    0.518334
H     10.149690    0.382353   -0.921821
H      8.902064   -1.639828   -1.454506
H      7.742683   -1.258343   -0.114093
H      7.089492    0.856126   -1.451002
H      8.391637    0.423205   -2.610285
H      7.181020   -1.600783   -3.206273
H      6.080474   -0.159101   -3.348427
H      6.142400   -2.078245   -0.922657
H      5.013409   -2.102330   -2.267332
H      5.525530    0.331457   -0.297471
H      3.233357    0.688701   -0.366316
H      3.181656   -1.803529   -2.300964
H      2.178557   -0.378189   -2.555209
H      2.341306   -2.159215   -0.052073
H      1.059447   -2.322968   -1.264285
H      0.293687   -1.167093    0.679229
H      1.598781    0.024268    0.651563
H      0.835986    0.818208   -1.625233
H     -0.360328    1.140155   -0.374395
H     -0.231730   -1.193668   -2.367882
H     -1.391845    0.142446   -2.442080
H     -1.349913   -2.073556   -0.308719
H     -2.532711   -1.740863   -1.585904
H     -1.998094    0.328042    0.619258
H     -3.158789    0.363936   -0.729251
H    -12.171467    0.670869    2.052303
H    -12.261398   -0.657512    0.852650
H    -10.171265    0.047921   -0.187636
H     -9.997272   -0.168582    1.564465
H     -5.814800    0.113300    2.997162
H     -4.957288   -1.467547    3.333710
H     -8.029282   -0.916817    0.413209
H     -6.420023   -0.023774    0.204979
H     -7.285652   -1.818570    2.543592
H    -12.124748    2.177114   -0.029554
H    -12.687778    0.812410   -0.864833
H     -6.676962   -3.351156    1.139559
H     -8.294717    4.049809    0.902285
