39

C     -4.655804   -0.666880    0.473997
C     -5.361827    0.910827   -1.428311
C      0.618374    0.432350    1.532078
C     -2.060780    0.407326    0.404100
C     -3.108486    0.905938   -0.525250
C     -0.886065   -0.165655   -0.317703
C      1.232877   -1.372585   -0.067396
C      2.261205   -1.996958    0.790970
C     -4.319264    0.402822   -0.490701
C      0.135728   -0.681871    0.666687
C      5.165840    0.583959   -0.713071
C      3.805597   -0.134778    1.086334
N      4.671260    1.713863   -1.080517
N      4.335707   -0.364101   -0.065946
O      6.503173    0.316038   -0.957940
O      4.038428    1.056585    1.724183
O      3.004547   -1.157504    1.615282
H     -5.732048   -0.870403    0.416293
H     -4.464881   -0.292953    1.508148
H     -4.053985   -1.565758    0.261201
H     -5.445674    2.022516   -1.366565
H     -5.101277    0.690267   -2.490106
H     -6.343582    0.433740   -1.247019
H     -0.199367    0.963493    2.088970
H      1.239966    1.158521    0.989961
H      1.234595    0.008293    2.376710
H     -2.481949   -0.402757    1.047822
H     -1.817709    1.247550    1.085528
H     -2.857367    1.679046   -1.219287
H     -1.266548   -1.054553   -0.892461
H     -0.445003    0.546596   -1.044132
H      1.700997   -0.619263   -0.757443
H      0.753232   -2.162054   -0.721527
H      2.956059   -2.615205    0.158025
H      1.758716   -2.742544    1.480905
H     -0.400880   -1.420511    1.329446
H      3.696747    1.992086   -0.938955
H      7.191969    1.056865   -0.924291
H      4.697480    1.757653    1.384579
