47

C      6.359042    0.496915    0.381263
C     -6.807647    0.908349   -0.273722
C      1.806802    0.358771    1.778294
C      5.153241   -0.404096    0.546116
C     -6.356080   -0.487282   -0.600277
C      4.448319   -0.652620   -0.754046
C     -4.832600   -0.542640   -0.752235
C      3.916476    0.512317   -1.460572
C     -4.263532   -0.102014    0.561921
C      2.904975    1.402919   -0.905331
C     -2.766108   -0.114373    0.516698
C      1.565419    0.913944   -0.602646
C     -2.212905   -1.484771    0.223282
C      1.326042   -0.131764    0.430861
C     -0.737018   -1.437933    0.197836
O      0.023320   -2.404340   -0.029978
O     -0.120911   -0.231770    0.444457
H      6.124375    1.405514   -0.204039
H      6.691199    0.775715    1.400388
H      7.168093   -0.107491   -0.072187
H     -7.842448    1.025427   -0.658223
H     -6.818901    1.071129    0.829833
H     -6.115319    1.631800   -0.756601
H      2.514833    1.188885    1.668492
H      2.275503   -0.501876    2.297066
H      0.967200    0.683308    2.428820
H      4.554499   -0.051644    1.372863
H      5.575915   -1.403337    0.864781
H     -6.624982   -1.219962    0.166753
H     -6.790459   -0.842770   -1.566096
H      5.296243   -1.055288   -1.440578
H      3.774895   -1.495974   -0.664883
H     -4.518757   -1.569456   -0.987925
H     -4.517192    0.153433   -1.547346
H      3.485591    0.107667   -2.449900
H      4.814693    1.093145   -1.868129
H     -4.636285    0.893801    0.864934
H     -4.555832   -0.803552    1.397557
H      3.278721    2.017848   -0.029491
H      2.758865    2.235220   -1.687198
H     -2.406383    0.647623   -0.196666
H     -2.419203    0.254347    1.526872
H      1.028418    0.554732   -1.534055
H      0.887409    1.787449   -0.287197
H     -2.610603   -2.258914    0.896578
H     -2.510110   -1.721937   -0.842015
H      1.763182   -1.094454    0.209697
