39

C      5.584967   -0.385031    1.622890
C     -0.093534    2.128931   -0.900866
C      5.448879   -1.091158    0.301445
C      4.321133   -0.447572   -0.474036
C      3.027373   -0.573393    0.319041
C      1.939415    0.082713   -0.497573
C     -6.368247   -0.878056   -0.337209
C     -6.705518   -0.331858    0.883611
C      0.608776    0.003188    0.220942
C     -5.086016   -0.782099   -0.858116
C     -5.706155    0.321229    1.574424
C     -0.433545    0.674984   -0.645407
C     -4.089094   -0.129101   -0.166134
C     -4.426278    0.417171    1.054772
C     -2.733445   -0.021866   -0.705980
Br    -3.075058    1.323117    2.032278
O     -2.504349   -0.550875   -1.834767
O     -1.713634    0.620756   -0.046434
H      6.650251   -0.136246    1.824892
H      5.224068   -1.054480    2.407052
H      4.998556    0.563516    1.659085
H      0.349134    2.623657   -0.008856
H      0.609384    2.251486   -1.756660
H     -1.002413    2.711550   -1.155505
H      6.377159   -0.983750   -0.298498
H      5.190479   -2.170335    0.420477
H      4.143005   -1.002845   -1.425744
H      4.490545    0.630458   -0.639570
H      2.772809   -1.653771    0.382330
H      3.112397   -0.140866    1.330485
H      1.902182   -0.456007   -1.479189
H      2.233027    1.139609   -0.657800
H     -7.129719   -1.396158   -0.902447
H     -7.703928   -0.401542    1.298768
H      0.292650   -1.051239    0.337240
H      0.724446    0.452823    1.206197
H     -4.824266   -1.217742   -1.827860
H     -5.971521    0.752545    2.537926
H     -0.433917    0.158259   -1.625127
