39

C     -5.026650    1.393511    0.806382
C     -0.220641    0.193118   -1.981392
C     -5.013912   -0.124490    0.732220
C     -4.331954   -0.502787   -0.549470
C     -2.900359    0.020849   -0.664310
C     -2.085589   -0.538026    0.438697
C     -0.690250   -0.083095    0.484508
C      4.167529    0.960369    0.357752
C      4.914076   -1.272684    0.214521
C      5.458828    1.381290    0.689530
C      6.198680   -0.885910    0.540252
C      0.167844   -0.398193   -0.677427
C      3.894111   -0.362043    0.120644
C      6.448473    0.451504    0.774362
C      2.559874   -0.824101   -0.225866
Cl     8.089015    0.949970    1.190953
O      2.325941   -2.031337   -0.438966
O      1.486888    0.055202   -0.335321
H     -3.958179    1.689358    0.994781
H     -5.645424    1.780737    1.619534
H     -5.316515    1.762974   -0.192447
H     -0.814388    1.100830   -1.861501
H      0.758457    0.537565   -2.465630
H     -0.610043   -0.519675   -2.738745
H     -6.079607   -0.496236    0.670023
H     -4.534818   -0.614923    1.581552
H     -4.925521   -0.061911   -1.393640
H     -4.317425   -1.594883   -0.656121
H     -2.862658    1.108902   -0.656402
H     -2.588976   -0.330356   -1.677261
H     -2.162490   -1.664641    0.376264
H     -2.611553   -0.322726    1.416271
H     -0.221340   -0.517838    1.439977
H     -0.618393    1.035171    0.675668
H      3.402402    1.718672    0.297497
H      4.734175   -2.328907    0.033331
H      5.661219    2.425368    0.873865
H      7.019307   -1.570032    0.622351
H      0.249864   -1.520599   -0.811786
