52

C      6.754951   -1.355971    0.483365
C      1.345656   -1.538083    1.378643
C      5.479458   -1.276165   -0.327752
C      5.160151    0.151112   -0.716445
C      3.910965    0.271172   -1.516326
C     -4.002204   -2.855665   -1.570212
C     -5.267340    3.373587    1.461120
C      2.684146   -0.223365   -0.818460
C     -3.955775   -1.764776   -2.406884
C     -3.469985   -2.730960   -0.294546
C     -4.871938    3.569309    0.152979
C     -4.681740    2.369368    2.180201
C      2.404675    0.521742    0.467175
C     -3.392542   -0.572804   -1.987272
C     -2.910382   -1.531184    0.108769
C     -3.902873    2.760676   -0.408134
C     -3.699446    1.551082    1.608282
C      1.143427   -0.060537    1.087670
C     -2.858832   -0.432886   -0.721079
C     -3.295150    1.734490    0.305646
C     -2.261844    0.869407   -0.310536
C     -1.087512    0.724189    0.561110
O     -1.088723    1.243950    1.713347
O      0.055169    0.040105    0.204664
H      7.576774   -1.031148   -0.179602
H      6.902525   -2.442768    0.717843
H      6.695921   -0.774784    1.425009
H      2.365652   -1.779961    1.685997
H      1.000914   -2.174850    0.519208
H      0.669037   -1.787170    2.222795
H      4.595968   -1.633578    0.271257
H      5.637828   -1.894269   -1.235308
H      5.128843    0.789035    0.179800
H      6.002674    0.519840   -1.337828
H      3.756054    1.344536   -1.747654
H      4.004646   -0.293563   -2.467253
H     -4.430995   -3.807640   -1.850570
H     -6.036464    4.024049    1.888898
H      2.698157   -1.293979   -0.587779
H      1.818983   -0.044031   -1.498277
H     -4.372112   -1.867239   -3.400500
H     -3.490886   -3.574843    0.391733
H     -5.350230    4.374459   -0.403683
H     -4.993375    2.218315    3.204617
H      3.217371    0.364533    1.205321
H      2.227118    1.581118    0.230371
H     -3.379394    0.257769   -2.682058
H     -2.511610   -1.466356    1.089665
H     -3.591153    2.908480   -1.426089
H     -3.290786    0.783161    2.234390
H      0.890012    0.475495    2.019449
H     -1.933784    1.387596   -1.254902
