43

C      6.132481    0.843764   -0.347490
C      0.072423   -2.595289    0.079847
C     -3.414711    0.200682   -2.321851
C      4.900014    1.669773   -0.585594
C      3.726546    1.037307    0.154447
C      3.562898   -0.356215   -0.405437
C      2.421282   -1.100014    0.252993
C     -5.555966    0.978090    2.187737
C     -6.044481    1.193338    0.916017
C      1.103314   -0.391728    0.058584
C     -4.290230    0.471110    2.402947
C     -5.214839    0.880755   -0.140685
C      0.048527   -1.227414    0.754076
C     -3.454616    0.156044    1.352890
C     -3.948473    0.373410    0.081337
C     -2.117049   -0.379700    1.580747
O     -1.742415   -0.548260    2.769536
O     -3.091848    0.050056   -0.973145
O     -1.243546   -0.710719    0.583508
H      6.210980    0.011987   -1.090013
H      6.183846    0.394761    0.645822
H      7.028658    1.476621   -0.494668
H     -0.942403   -3.041942    0.205801
H      0.841715   -3.250279    0.525083
H      0.241638   -2.443490   -1.002745
H     -3.955921   -0.676934   -2.737195
H     -2.462716    0.326390   -2.882964
H     -4.013445    1.125865   -2.443991
H      5.096996    2.700752   -0.261312
H      4.631132    1.655422   -1.668039
H      3.900646    0.959836    1.231841
H      2.800193    1.636975   -0.048434
H      4.522745   -0.893753   -0.272271
H      3.405849   -0.297748   -1.509871
H      2.638720   -1.191135    1.339873
H      2.420339   -2.118381   -0.152647
H     -6.230898    1.232895    3.015856
H     -7.046258    1.593920    0.786893
H      0.892449   -0.345851   -1.028016
H      1.144966    0.610122    0.527448
H     -3.934388    0.313106    3.403244
H     -5.582605    1.043522   -1.142322
H      0.358446   -1.367651    1.788284
