32

C     -4.973647    0.136090   -0.012041
C      1.512116   -1.738945    0.112816
C     -3.541796    0.615576   -0.236953
C     -2.675725    0.043821    0.850299
C     -1.218829    0.479862    0.702968
C     -0.700737   -0.008445   -0.615300
C      0.721055    0.333042   -0.916703
C      5.391506    0.495553   -0.226009
C      1.679518   -0.220134    0.097448
C      4.048357    0.458878    0.411159
Br     6.632261   -0.736308    0.648116
O      3.810796    0.888996    1.545741
O      3.019856   -0.074421   -0.285894
H     -5.273695   -0.635600   -0.727356
H     -5.077601   -0.229229    1.037678
H     -5.699923    0.974442   -0.106669
H      0.576671   -2.062118    0.536645
H      2.363796   -2.088803    0.771663
H      1.768923   -2.093021   -0.885972
H     -3.262888    0.226506   -1.257627
H     -3.538749    1.712291   -0.245105
H     -3.108304    0.365546    1.813971
H     -2.708275   -1.072221    0.763544
H     -1.211154    1.573168    0.796921
H     -0.696213    0.044916    1.580020
H     -0.964423   -1.067900   -0.811958
H     -1.307492    0.557061   -1.391240
H      0.976437   -0.102274   -1.890762
H      0.761572    1.460772   -0.948974
H      5.337159    0.116304   -1.291475
H      5.831827    1.488386   -0.226013
H      1.527604    0.158213    1.103879
