41

C      5.161141    2.652500    0.011437
C      0.898007   -3.156352    1.711679
C      4.218271    1.504052    0.375241
C      1.349577   -1.950364    1.448150
C      4.252093    0.453449   -0.688391
C      3.343523   -0.682573   -0.320595
C      1.935999   -0.173004   -0.186604
C     -3.715845   -0.795534   -1.100536
C     -2.816273    0.487028    0.726337
C     -5.099853    0.706825    0.077708
C     -2.650677   -0.449760   -0.283478
C     -4.936428   -0.217730   -0.918924
C     -4.047420    1.061902    0.900418
C      0.982300   -1.305673    0.167462
C     -1.360015   -1.073796   -0.490530
N     -6.043296   -0.558289   -1.746462
N     -4.261308    2.022612    1.918648
O     -1.222517   -1.915765   -1.402703
O     -7.271624   -0.001195   -1.591698
O     -5.890299   -1.400215   -2.652367
O     -5.497491    2.602070    2.096028
O     -3.328227    2.349656    2.662083
O     -0.301759   -0.729031    0.322725
H      5.283234    3.343349    0.864802
H      4.737723    3.169566   -0.866765
H      6.148587    2.176759   -0.203853
H      0.267259   -3.665333    0.998657
H      1.148130   -3.649897    2.633954
H      3.215897    2.003642    0.452187
H      4.435954    1.081538    1.370558
H      1.978865   -1.454140    2.170172
H      3.838043    0.923983   -1.620806
H      5.283977    0.099293   -0.906245
H      3.389649   -1.505236   -1.063408
H      3.718777   -1.081362    0.668609
H      1.617643    0.216477   -1.169610
H      1.851753    0.588540    0.616290
H     -3.601903   -1.534771   -1.903996
H     -1.965309    0.736711    1.348601
H     -6.078299    1.156761    0.208096
H      1.032142   -2.036691   -0.652024
