40

C     -3.987018    1.246495    1.356111
C     -1.635625   -2.911123   -3.293212
C     -2.508108    1.348021    1.730991
C     -1.428876   -1.785279   -2.349928
C     -1.981385    0.011160    2.193567
C      4.987069    0.085694    0.633389
C      4.101528   -0.912429    0.925501
C     -1.550497   -1.916323   -1.033765
C     -2.091953   -1.060552    1.153021
C      4.506211    1.220578    0.038337
C      2.775596   -0.750922    0.618610
C     -1.332203   -0.747643   -0.108093
C      3.140993    1.406294   -0.286403
C      2.253274    0.408823    0.005059
C      2.748375    2.640983   -0.911735
C      0.827462    0.442073   -0.261428
O      1.620735    2.943170   -1.248961
O      3.758431    3.605395   -1.164987
O      0.167341    1.340645   -0.781298
O      0.062248   -0.684004    0.109089
H     -4.396123    2.237290    1.119772
H     -4.129164    0.523988    0.551445
H     -4.517855    0.846283    2.264937
H     -0.740837   -3.555910   -3.371596
H     -2.481215   -3.575040   -2.952594
H     -1.912160   -2.523089   -4.274624
H     -1.966055    1.782556    0.893111
H     -2.487232    2.015358    2.633738
H     -1.160968   -0.772076   -2.698170
H     -2.659933   -0.305054    3.039730
H     -0.981924    0.091505    2.634673
H      6.038033   -0.009906    0.861989
H      4.481230   -1.814429    1.397832
H     -1.812806   -2.897521   -0.655067
H     -1.661862   -1.985924    1.573731
H     -3.145438   -1.230979    0.892792
H      5.175703    2.023945   -0.204273
H      2.098131   -1.563386    0.864108
H     -1.640420    0.196314   -0.584435
H      3.467297    4.585019   -1.310962
