42

C     -5.110295    0.634896    1.364700
C     -5.581164   -1.811365    0.659160
C      6.023318    1.580839    0.311272
C      5.515908   -0.725299   -0.330647
C     -0.875200   -0.192753   -2.233907
C     -2.942780    0.707314   -0.351414
C     -3.744675   -0.526562   -0.252306
C     -1.527362    0.417039    0.075039
C      0.452679   -1.044938   -0.307934
C      3.674792    0.951427   -0.117710
C     -4.779464   -0.569073    0.563451
C      5.006294    0.466061    0.421969
C     -0.912452   -0.618417   -0.802733
C      1.418135    0.071610   -0.433561
O      1.150717    1.200332   -0.905224
O      2.743331   -0.104409   -0.004198
H     -5.324231    1.480196    0.656250
H     -4.251561    0.916204    2.016771
H     -6.016548    0.428911    1.968718
H     -5.418295   -2.246671    1.673358
H     -6.669671   -1.610556    0.494352
H     -5.221459   -2.542801   -0.073635
H      6.138604    2.051338    1.312788
H      6.974943    1.186367   -0.071403
H      5.644071    2.325392   -0.421140
H      4.657582   -1.383104   -0.604007
H      6.201754   -1.355545    0.260410
H      6.029774   -0.451047   -1.272981
H      0.048869   -0.637484   -2.695155
H     -1.754389   -0.563138   -2.810311
H     -0.858426    0.909331   -2.371504
H     -2.940559    1.031066   -1.421151
H     -3.316143    1.518618    0.301602
H     -3.511622   -1.402192   -0.838245
H     -1.530896    0.077124    1.140069
H     -0.925950    1.355111    0.081138
H      0.777770   -1.933679   -0.868761
H      0.320809   -1.352596    0.751514
H      3.308777    1.823991    0.434824
H      3.800487    1.286565   -1.182776
H      4.857531    0.205066    1.494890
H     -1.533006   -1.553169   -0.757965
