37

C      5.727360    0.406462    1.588545
C     -3.626933    0.561817    1.369278
C     -5.422914    0.990791   -0.471420
C      0.773247   -1.508751   -1.365388
C      5.129499    0.408868    0.406207
C     -1.915020   -0.509767   -0.543767
C     -3.278106   -0.005371   -0.951050
C     -0.920107    0.303760   -1.321485
C      4.444597   -0.825604   -0.050532
C      0.819766    0.215375    0.428430
C     -4.074290    0.497476   -0.036626
C      0.514002   -0.079045   -1.028484
C      2.238522   -0.068625    0.731756
O      2.710236    0.097854    1.869765
O      3.069253   -0.529348   -0.261217
H      6.241886    1.308310    1.950186
H      5.710579   -0.482569    2.200495
H     -4.425825    0.994449    2.028580
H     -3.371060   -0.431686    1.796987
H     -2.754348    1.246390    1.422541
H     -5.790327    0.312410   -1.261673
H     -5.268161    1.986057   -0.901899
H     -6.092163    1.037871    0.406335
H      1.753088   -1.584820   -1.874665
H     -0.021589   -1.877186   -2.046940
H      0.811018   -2.137768   -0.449655
H      5.153946    1.308602   -0.198133
H     -1.846540   -1.593371   -0.764185
H     -1.777616   -0.337973    0.524358
H     -3.597131   -0.057559   -1.988501
H     -1.048487    1.369719   -0.976590
H     -1.151668    0.290199   -2.391577
H      4.875552   -1.180485   -0.989398
H      4.472737   -1.618582    0.720402
H      0.179107   -0.362895    1.091471
H      0.609599    1.292581    0.616756
H      1.148291    0.562416   -1.685586
