45

C     -5.703295    0.626911   -2.867321
C     -0.154693   -0.801914    2.798496
C     -1.201907   -2.434162    1.305280
C     -4.928816    0.697136   -1.579345
C     -3.532519    0.218257   -1.820070
C     -2.693902    0.266049   -0.544502
C      5.802850   -0.690559   -0.256692
C      4.754382   -1.552577   -0.438143
C      5.555072    0.583761    0.174107
C      3.500763   -1.098286   -0.179196
C     -1.294343   -0.216609   -0.796774
C     -1.081631   -0.994233    1.588703
C      4.264045    1.062448    0.444260
C      3.223202    0.215328    0.266885
C     -0.506550   -0.151959    0.485943
C      4.118670    2.430215    0.896371
C      1.848795    0.593495    0.512026
O      3.118611    3.063394    1.191071
O      5.311788    3.199346    1.033864
O      1.365687    1.655042    0.895509
O      0.865398   -0.376460    0.290243
H     -6.261479   -0.335330   -2.950136
H     -5.026266    0.671452   -3.740450
H     -6.415452    1.477629   -2.985185
H      0.896749   -0.913692    2.512732
H     -0.409610   -1.546366    3.602034
H     -0.309395    0.196381    3.253589
H     -1.310630   -2.731640    0.267727
H     -2.062513   -2.888331    1.869612
H     -0.300085   -2.984628    1.701443
H     -5.452451    0.162536   -0.785962
H     -4.855420    1.784617   -1.288889
H     -3.549250   -0.845775   -2.139853
H     -3.047653    0.788626   -2.611064
H     -3.211240   -0.300063    0.257004
H     -2.672447    1.341855   -0.248923
H      6.843270   -1.001720   -0.450492
H      4.936350   -2.558851   -0.777091
H      6.395483    1.274852    0.319591
H      2.620333   -1.748736   -0.308053
H     -1.247361   -1.171997   -1.311618
H     -0.817121    0.535587   -1.481397
H     -2.067566   -0.608004    1.924001
H     -0.594816    0.900758    0.830939
H      5.286962    4.206217    1.139728
