42

C      5.707171    0.285522    0.608416
C     -4.693798   -0.597781    0.963930
C     -4.977664    1.124777   -0.925637
C     -1.452378   -0.857285   -1.067494
C      4.356392    0.937243    0.578744
C      3.807175    1.067110   -0.823288
C     -2.186114    0.509499    1.546998
C     -2.998520    1.054610    0.466253
C     -0.831052   -0.006620    1.195416
C      3.653029   -0.275771   -1.493075
C      0.539395   -1.757595    0.137839
C     -4.180104    0.545586    0.178960
C     -0.854180   -1.143149    0.255019
C      1.465276   -0.845930   -0.583200
O      1.062183    0.273401   -1.028871
O      2.787045   -1.138425   -0.814000
H      6.195512    0.197015   -0.362762
H      6.379072    0.853446    1.284759
H      5.643877   -0.749664    1.055721
H     -5.726916   -0.883614    0.665650
H     -4.021196   -1.486824    0.936457
H     -4.760832   -0.271942    2.030450
H     -5.422957    2.109151   -0.623213
H     -4.338750    1.324758   -1.809763
H     -5.838450    0.485214   -1.208793
H     -1.477761    0.229553   -1.247960
H     -2.475724   -1.255929   -1.157975
H     -0.806897   -1.261365   -1.903960
H      4.409821    1.973631    0.996596
H      3.689050    0.371072    1.253130
H      4.582199    1.643721   -1.399366
H      2.909652    1.683596   -0.823470
H     -2.101200    1.272156    2.392435
H     -2.727191   -0.356282    2.027785
H     -2.592567    1.913404   -0.087566
H     -0.194106    0.847880    0.830262
H     -0.372428   -0.345579    2.184202
H      4.665558   -0.691984   -1.631625
H      3.237853   -0.125318   -2.511061
H      0.908835   -1.878371    1.175255
H      0.503438   -2.772554   -0.309547
H     -1.471749   -2.000365    0.697213
