47

C      4.138801    2.275758   -1.021565
C     -5.367950    2.663532   -0.310097
C     -2.792584   -3.599726    1.097895
C      5.178153    1.838559   -0.090133
C     -4.149549    1.853274    0.144111
C     -1.668955   -2.680453    1.522609
C      5.380681    0.436929    0.220431
C     -3.662784    1.104020   -1.050845
C      4.480217   -0.456699    0.887144
C     -2.452964    0.242199   -0.791750
C      3.172486   -0.920522    0.453790
C     -2.699881   -0.798218    0.257730
C      2.038589    0.026950    0.297173
C     -1.449505   -1.618575    0.456950
C      0.829985   -0.864794   -0.048116
O      0.924391   -1.612752   -1.038718
O     -0.307456   -0.846225    0.697876
H      3.197944    2.620138   -0.526557
H      4.499530    3.194961   -1.581470
H      3.908446    1.525090   -1.783625
H     -4.951343    3.591476   -0.739310
H     -6.059288    2.861115    0.514116
H     -5.884271    2.075216   -1.124471
H     -2.587019   -4.597327    1.549562
H     -3.786485   -3.246608    1.439595
H     -2.807451   -3.714182   -0.006385
H      5.067370    2.412818    0.899889
H      6.177031    2.218869   -0.528109
H     -4.496064    1.211160    0.967149
H     -3.401262    2.536393    0.558901
H     -1.924601   -2.256848    2.503729
H     -0.747968   -3.298753    1.593750
H      5.711347   -0.058605   -0.794159
H      6.423639    0.381831    0.743073
H     -3.335228    1.873402   -1.806448
H     -4.450538    0.453755   -1.438142
H      4.350211   -0.030522    1.983743
H      5.120143   -1.398395    1.198419
H     -1.619277    0.914262   -0.506042
H     -2.217324   -0.275567   -1.743806
H      3.283251   -1.478469   -0.558440
H      2.826647   -1.815476    1.119725
H     -3.027464   -0.353727    1.222465
H     -3.533490   -1.440979   -0.103329
H      1.796163    0.649238    1.154885
H      2.100627    0.608028   -0.672962
H     -1.224950   -2.205549   -0.481739
