39

C      5.449053   -0.154111    0.332130
C     -0.236102    2.309648   -1.798313
C      4.746383   -1.447438    0.669002
C      0.726582    1.712951   -0.795314
C      3.321914   -1.211055    1.120939
C     -6.102001   -0.480004    0.784167
C      2.507963   -0.522799    0.042434
C     -5.746161   -1.172005   -0.345974
C     -5.157214    0.244543    1.466641
C     -4.422137   -1.130787   -0.790090
C     -3.844755    0.274951    1.011392
C      1.109324   -0.334984    0.593491
C     -3.462950   -0.410793   -0.119639
C      0.205411    0.352058   -0.417592
C     -2.090351   -0.364760   -0.575509
O     -1.750347   -0.992989   -1.608600
O     -1.090556    0.342852    0.062173
H      6.541748   -0.341109    0.429566
H      5.170759    0.675633    0.986384
H      5.257901    0.134430   -0.725714
H     -0.176573    1.790156   -2.762332
H      0.132228    3.359227   -1.995207
H     -1.265230    2.373339   -1.434008
H      5.326603   -1.923207    1.483873
H      4.782973   -2.118015   -0.198630
H      0.936101    2.369425    0.046688
H      1.686481    1.551510   -1.334381
H      2.891859   -2.218522    1.339584
H      3.298352   -0.650273    2.073614
H     -7.140384   -0.505235    1.142633
H      2.533342   -1.080089   -0.892969
H      2.971637    0.485397   -0.107298
H     -6.497070   -1.738239   -0.874602
H     -5.420454    0.785335    2.344128
H     -4.155801   -1.690824   -1.696469
H     -3.145739    0.858080    1.583983
H      0.691657   -1.351788    0.747021
H      1.163020    0.190164    1.546801
H      0.252535   -0.272215   -1.334005
