43

C      6.140356   -1.427413   -1.350297
C      1.054813    1.883282    1.301505
C      4.911719   -2.258626   -1.104536
C      1.793512    1.009568    0.232642
C      3.702729   -1.306738   -1.131579
C      2.435657   -2.035408   -0.897691
C      1.231631   -1.215952   -0.922261
C     -3.109680    1.145527   -0.575361
C     -3.771787    0.250535    1.508259
C     -5.395291    1.350128    0.134652
C     -2.791586    0.479211    0.581066
C     -4.415312    1.581501   -0.797744
C     -5.064343    0.674976    1.302215
C      0.922662   -0.163425    0.038231
C     -1.415558    0.041363    0.773013
N     -4.705679    2.261823   -1.995116
N     -6.097980    0.453603    2.241155
O     -1.070908   -0.581488    1.830848
O     -3.727249    2.500075   -2.940524
O     -5.845217    2.687359   -2.277459
O     -7.382330    0.859802    2.066880
O     -5.814217   -0.150348    3.291882
O     -0.425864    0.269111   -0.156686
H      6.202412   -1.250203   -2.462228
H      5.975099   -0.431818   -0.897250
H      7.071054   -1.895545   -0.971047
H      1.649138    2.784631    1.480317
H      0.956581    1.267324    2.223531
H      0.050089    2.131240    0.948738
H      4.931713   -2.812721   -0.157174
H      4.793242   -2.941390   -1.969085
H      2.023529    1.639976   -0.610850
H      2.733399    0.779239    0.783572
H      3.932513   -0.450514   -0.518319
H      3.668650   -0.909147   -2.195336
H      2.498205   -2.734899   -0.014372
H      2.358894   -2.787842   -1.758779
H      1.102300   -0.832356   -2.004570
H      0.325150   -1.933459   -0.885517
H     -2.369386    1.341144   -1.320704
H     -3.542498   -0.270695    2.422420
H     -6.414036    1.677725   -0.014104
H      0.893874   -0.679155    1.066841
