39

C      5.835829   -0.431042    0.667965
C     -0.388237   -2.643956   -0.372044
C      4.810852    0.535686    0.170655
C      0.548787   -1.560723    0.205009
C      3.371251   -0.005651    0.432073
C     -6.055824    1.068302    0.530688
C      2.474828    1.042845   -0.105462
C     -5.006902    0.893030    1.403069
C     -5.797459    0.960185   -0.840030
C     -3.748221    0.619995    0.918853
C     -4.527060    0.685838   -1.298778
C      1.048438    0.892185    0.094625
C     -3.474632    0.509744   -0.429266
C      0.234469   -0.234254   -0.379335
C     -2.126496    0.219219   -0.901569
O     -1.853573    0.114778   -2.110201
O     -1.120253    0.054409    0.015273
H      6.251621   -0.979164   -0.224705
H      5.445949   -1.152484    1.421508
H      6.696521    0.101753    1.120657
H     -0.558073   -2.476433   -1.447227
H     -1.331509   -2.690870    0.210288
H      0.133624   -3.614009   -0.246781
H      4.855891    1.487027    0.729769
H      4.863554    0.705401   -0.909458
H      1.555199   -1.908495    0.208441
H      0.246856   -1.488373    1.303726
H      3.313595   -0.950605   -0.163118
H      3.220701   -0.172591    1.484318
H     -7.059570    1.285197    0.896544
H      2.746863    1.284442   -1.190643
H      2.795647    2.014496    0.431590
H     -5.207555    0.976509    2.455619
H     -6.635965    1.101297   -1.512862
H     -2.926689    0.482948    1.607828
H     -4.326700    0.602230   -2.356009
H      0.580524    1.894321   -0.283471
H      0.863186    1.061044    1.225472
H      0.250535   -0.284230   -1.519066
