34

C      4.412701    0.910814    1.595097
C     -1.334880   -2.661296   -1.057830
C     -5.190457    1.702882    0.315380
C      3.758616    1.415501    0.354453
C      2.279062    1.019585    0.286815
C      2.245903   -0.488722    0.309996
C      0.846560   -1.042592    0.248798
C      0.122929   -0.620957   -1.008274
C     -1.276701   -1.170698   -1.076946
C     -4.036022    0.835410    0.618390
C     -3.183276    0.229133   -0.396024
O     -3.756955    0.594314    1.818331
O     -3.442584    0.456282   -1.620745
O     -2.116238   -0.572967   -0.107948
H      4.702674   -0.162670    1.505710
H      5.356429    1.471938    1.754666
H      3.814196    1.023158    2.513034
H     -2.229692   -2.980095   -1.633659
H     -0.457125   -3.084686   -1.584669
H     -1.462617   -3.087148   -0.040772
H     -5.805602    1.297912   -0.535230
H     -5.879113    1.725133    1.183595
H     -4.869545    2.716869   -0.005803
H      4.236581    0.943089   -0.527769
H      3.824957    2.523009    0.307473
H      1.807244    1.431779    1.201099
H      1.804987    1.469271   -0.583658
H      2.817867   -0.916078   -0.533305
H      2.694872   -0.829381    1.255455
H      0.244866   -0.697516    1.136712
H      0.937954   -2.147957    0.279411
H      0.738782   -0.951681   -1.868209
H      0.080448    0.486172   -1.052198
H     -1.686818   -0.837807   -2.073266
