42

C     -5.893646   -0.918208   -1.283095
C      6.036505   -0.992900   -2.959236
C     -0.802385    2.361967    1.439904
C     -5.060022    0.050824   -0.472377
C     -3.897565   -0.729378    0.085978
C     -2.992582    0.198587    0.932924
C     -1.875521   -0.628930    1.448658
C     -0.872507   -0.011309    2.323602
C      5.466944   -0.123484   -0.698039
C      3.684597   -0.569742   -2.185711
C      4.548119    0.279592    0.247059
C      2.762546   -0.161899   -1.228230
C      5.040188   -0.559818   -1.945184
C     -0.063548    1.132626    1.826543
C      3.190238    0.270071    0.007259
C      2.247904    0.705971    1.037384
O      2.643003    1.099404    2.163622
O      0.879373    0.715871    0.848289
H     -6.188122   -0.443812   -2.259225
H     -5.334747   -1.828789   -1.520859
H     -6.847882   -1.161684   -0.753877
H      5.541940   -1.703359   -3.637325
H      6.311597   -0.080206   -3.535830
H      6.928264   -1.437613   -2.490310
H     -0.933193    2.527057    0.353110
H     -0.332085    3.262288    1.924330
H     -1.814663    2.321069    1.887222
H     -4.712041    0.852795   -1.153524
H     -5.659830    0.542905    0.315226
H     -4.254677   -1.563347    0.716401
H     -3.323536   -1.137791   -0.769959
H     -2.652662    0.966176    0.172783
H     -3.615919    0.683689    1.685813
H     -1.377217   -1.154746    0.598099
H     -2.353187   -1.464490    2.055097
H     -1.300495    0.268605    3.320066
H     -0.124621   -0.830208    2.582700
H      6.523161   -0.090884   -0.443394
H      3.300638   -0.897911   -3.133621
H      4.881294    0.625226    1.234181
H      1.704982   -0.181876   -1.448975
H      0.591356    1.421970    2.712520
