42

C     -3.885489    2.161921    1.119198
C      5.820916    2.173577    0.611730
C     -0.447631   -3.661027    0.096774
C     -3.930987    1.461469   -0.207438
C     -2.671206    0.552244   -0.355239
C     -2.799354   -0.084454   -1.665096
C     -1.824256   -0.988951   -2.229798
C     -1.435092   -2.274173   -1.661137
C      4.198509    0.503944   -0.334392
C      3.556432    1.739271    1.570204
C      2.979780   -0.134164   -0.304622
C      2.319081    1.090386    1.599198
C      4.507533    1.459619    0.612271
C     -0.814170   -2.195617   -0.302879
C      2.033895    0.140455    0.643843
C      0.747769   -0.543834    0.662089
O     -0.097645   -0.272527    1.540762
O      0.397907   -1.508453   -0.268565
H     -4.443570    3.108814    1.019995
H     -2.847468    2.326374    1.457396
H     -4.421011    1.534181    1.870579
H      6.365057    1.861019   -0.302062
H      5.682354    3.260702    0.613893
H      6.404737    1.806689    1.494711
H     -1.356245   -4.253533    0.224502
H      0.146933   -3.596766    1.029958
H      0.196009   -4.021527   -0.710072
H     -3.967801    2.172500   -1.051434
H     -4.844350    0.831267   -0.230206
H     -1.817837    1.273578   -0.307563
H     -2.646460   -0.033875    0.549579
H     -2.920678    0.776411   -2.418258
H     -3.838704   -0.569313   -1.767975
H     -0.889039   -0.367975   -2.485224
H     -2.188890   -1.208533   -3.305174
H     -0.640112   -2.779375   -2.309506
H     -2.247728   -3.048321   -1.670622
H      4.913865    0.251312   -1.105754
H      3.811738    2.493970    2.310426
H      2.794172   -0.884552   -1.085198
H      1.635899    1.374818    2.387730
H     -1.536864   -1.927553    0.485077
