42

C     -5.360492   -0.769720    0.571966
C      6.775769   -1.023905   -1.367941
C     -0.908091   -1.063838    1.790609
C     -5.732958    0.608585    0.089231
C     -4.820006    1.175045   -0.926360
C     -3.410677    1.417963   -0.576598
C     -2.581854    0.265920   -0.145547
C      5.060403    1.007044    1.238357
C      6.044471    0.459130    0.443102
C     -1.160720    0.779489    0.114051
C      3.739646    0.613493    1.025424
C      4.393413   -0.830043   -0.727153
C      5.710794   -0.446286   -0.524733
C     -0.352711   -0.440449    0.553099
C      3.394258   -0.297851    0.052935
C      1.998122   -0.679517   -0.133239
O      1.652969   -1.506640   -1.010192
O      1.023824   -0.131627    0.660147
H     -5.013318   -0.766256    1.628059
H     -4.653293   -1.310277   -0.054510
H     -6.284133   -1.440718    0.583825
H      7.714374   -1.019461   -0.807147
H      6.877867   -0.399273   -2.287726
H      6.512798   -2.058569   -1.665731
H     -1.140164   -0.352186    2.593843
H     -1.801490   -1.662231    1.505391
H     -0.155880   -1.774484    2.183878
H     -5.925488    1.302843    0.949897
H     -6.764561    0.513102   -0.373450
H     -4.936177    0.576944   -1.878221
H     -5.250584    2.184111   -1.229397
H     -2.940073    1.936751   -1.470842
H     -3.365283    2.210996    0.214327
H     -2.502764   -0.546301   -0.861571
H     -2.925427   -0.035621    0.871073
H      5.285671    1.712410    1.998486
H      7.056161    0.784112    0.632868
H     -0.772370    1.110815   -0.870927
H     -1.176814    1.570382    0.863984
H      2.960030    1.044509    1.651989
H      4.181236   -1.537433   -1.491887
H     -0.446478   -1.180957   -0.270016
