42

C     -6.578982    0.521831   -0.784810
C     -0.663509   -1.752795   -1.559955
C     -5.255043   -0.037567   -0.278308
C     -4.594073    0.898729    0.687818
C     -3.313339    0.295212    1.179742
C      6.686568    1.616095   -0.154890
C     -2.381287    0.053710    0.035756
C      6.414627    0.623425   -1.062360
C      5.913331    1.736546    0.978853
C     -1.083016   -0.532976    0.581431
C      5.370097   -0.266709   -0.859513
C      4.871219    0.850704    1.184042
C      3.484680   -1.082900    0.504335
C     -0.114356   -0.790367   -0.552991
C      4.600890   -0.142729    0.273564
C      2.260219   -0.520933   -0.106006
O      2.255849    0.584405   -0.706144
O      1.084977   -1.255591   -0.001338
H     -6.724124    0.327230   -1.867955
H     -6.659792    1.607329   -0.589545
H     -7.377930   -0.030954   -0.249781
H     -1.539396   -2.312481   -1.170399
H     -0.921477   -1.211440   -2.494507
H      0.145184   -2.483102   -1.810362
H     -4.592085   -0.112969   -1.187077
H     -5.396679   -1.010034    0.195499
H     -4.335171    1.880285    0.191085
H     -5.263867    1.169875    1.537056
H     -2.844826    0.889618    1.992999
H     -3.609107   -0.705684    1.621918
H      7.497326    2.324241   -0.290592
H     -2.793386   -0.690302   -0.695754
H     -2.162773    0.967866   -0.514319
H      7.025809    0.527511   -1.959392
H      6.121797    2.506707    1.686095
H     -1.340297   -1.445094    1.139001
H     -0.649363    0.210320    1.251193
H      5.169077   -1.039961   -1.580115
H      4.264111    0.947110    2.076515
H      3.285557   -1.251129    1.588676
H      3.670483   -2.061097   -0.008983
H      0.072079    0.198067   -1.042139
