41

C     -4.908888    3.315073   -2.559047
C     -0.884378    0.114495   -1.683550
C     -5.526577    2.046794   -1.992919
C     -4.901310    1.766783   -0.641687
C     -3.383549    1.568021   -0.835893
C      7.541211   -2.978257    2.413123
C     -2.754912    1.303389    0.491163
C      6.981679   -3.589988    1.326311
C      6.825380   -2.025405    3.137926
C     -1.289951    1.097993    0.551074
C      5.698632   -3.265147    0.943465
C      5.551367   -1.722203    2.735337
C      3.621138   -1.994692    1.274466
C      2.402344   -1.709772    0.950814
C     -0.700324   -0.029907   -0.205664
C      5.008516   -2.345744    1.646188
C      1.145514   -1.423022    0.640355
O      0.158406   -2.276444    0.848150
O      0.665898   -0.246762    0.075927
H     -4.635254    3.966139   -1.684413
H     -3.976318    3.073750   -3.082060
H     -5.625406    3.822247   -3.218228
H     -1.547831   -0.636581   -2.145321
H     -1.111327    1.164473   -1.943534
H      0.141024   -0.047607   -2.159171
H     -5.259013    1.241860   -2.707495
H     -6.617206    2.158407   -1.921801
H     -5.099427    2.561463    0.075136
H     -5.373174    0.847123   -0.264962
H     -2.953477    2.470673   -1.281858
H     -3.340354    0.654338   -1.496065
H      8.530703   -3.190676    2.752706
H     -3.316018    0.457683    0.978774
H     -3.022053    2.198511    1.146772
H      7.546782   -4.326363    0.774547
H      7.228386   -1.516752    3.998608
H     -0.809674    2.082261    0.193270
H     -0.970928    1.079252    1.633832
H      5.234204   -3.743480    0.080905
H      5.004613   -0.962629    3.316740
H     -1.278446   -0.959295    0.133948
