35

C      5.274126   -1.008649   -0.104269
C     -5.810178   -1.055856    0.075728
C     -0.723470    1.371813   -1.113611
C      3.764644   -0.789907   -0.254247
C     -4.828233    0.002700    0.486215
C      3.483824    0.572276    0.281749
C      2.025751    0.995269    0.207404
C      1.212454    0.047444    0.997154
C     -0.240014    0.279586    1.111464
C     -1.067241    0.304519   -0.109633
C     -3.447001   -0.306167    0.024941
O     -3.212394   -1.344841   -0.623101
O     -2.422477    0.554426    0.312263
H      5.645044   -0.414962    0.751358
H      5.796055   -0.657068   -1.011042
H      5.507156   -2.070516    0.098339
H     -6.309170   -1.549480    0.926014
H     -6.628463   -0.661274   -0.578121
H     -5.236241   -1.852779   -0.480945
H     -0.248969    0.981595   -2.041886
H     -1.680485    1.850831   -1.508881
H     -0.170343    2.214562   -0.658074
H      3.516675   -0.925741   -1.310959
H      3.315518   -1.598374    0.391419
H     -5.191732    0.980594    0.066927
H     -4.866698    0.105911    1.608504
H      3.714867    0.536031    1.387620
H      4.157524    1.330630   -0.141733
H      1.797599    0.957794   -0.900397
H      1.989812    2.042249    0.559048
H      1.449105   -0.985176    0.650704
H      1.628405    0.073550    2.051030
H     -0.471628    1.214329    1.695322
H     -0.637656   -0.531534    1.800592
H     -1.086167   -0.663787   -0.664994
