74

C      7.759622   -1.248038   -1.742719
C     -8.860524   -2.637133   -1.124307
C     -5.247043    1.835765    1.946392
C      8.616177   -1.759877   -0.615599
C     -9.456025   -1.434754   -0.464705
C      8.364215   -0.971176    0.667619
C     -9.163222   -0.138306   -1.154363
C      6.898986   -1.148164    1.004388
C     -7.710805    0.185985   -1.260780
C      6.532342   -0.401600    2.273080
C      5.096396   -0.554045    2.634623
C      4.146811   -0.045008    1.581616
C      4.309723    1.398782    1.275118
C      3.310581    1.814803    0.221650
C      3.438997    1.093225   -1.078532
C      2.423575    1.595205   -2.058328
C      1.030911    1.401719   -1.544557
C      0.760374   -0.039635   -1.288986
C     -7.018136    0.296639    0.075091
C     -0.653920   -0.257829   -0.791413
C     -5.555126    0.629652   -0.236923
C     -0.954723    0.457445    0.493186
C     -4.748755    0.762839    1.036179
C     -2.360141    0.177988    0.903387
O     -2.594550   -0.894529    1.516242
O     -3.410823    1.026913    0.648143
H      7.434011   -0.220827   -1.479533
H      6.848516   -1.859105   -1.915025
H      8.382344   -1.160186   -2.661192
H     -9.607511   -3.465788   -1.270473
H     -8.436865   -2.447137   -2.124951
H     -8.046984   -3.106096   -0.512814
H     -4.580694    1.872638    2.824460
H     -5.150926    2.831813    1.448055
H     -6.258976    1.641461    2.313201
H      8.316556   -2.812755   -0.388919
H      9.671203   -1.734328   -0.898442
H    -10.574769   -1.565868   -0.502586
H     -9.230627   -1.383498    0.640738
H      8.937300   -1.487228    1.461400
H      8.662951    0.073511    0.579165
H     -9.720770    0.659812   -0.651563
H     -9.563299   -0.216694   -2.187588
H      6.320614   -0.789362    0.132379
H      6.749673   -2.233137    1.213685
H     -7.186321   -0.508494   -1.947508
H     -7.631334    1.192164   -1.740334
H      7.135985   -0.860283    3.084603
H      6.858268    0.669900    2.230993
H      4.895289   -1.629405    2.797054
H      4.925810   -0.036826    3.596380
H      3.112592   -0.218407    1.927876
H      4.293121   -0.639368    0.650261
H      5.323035    1.627243    0.831219
H      4.154650    2.065181    2.142874
H      2.258050    1.652615    0.588254
H      3.365865    2.901604   -0.001630
H      4.489549    1.259118   -1.497960
H      3.374450   -0.015857   -1.007013
H      2.506591    1.040936   -3.033408
H      2.648637    2.673285   -2.257768
H      0.341788    1.696230   -2.406104
H      0.807903    2.086162   -0.701447
H      0.852970   -0.600912   -2.232683
H      1.496649   -0.474113   -0.574723
H     -7.085688   -0.594038    0.695227
H     -7.386800    1.158855    0.666563
H     -1.321909    0.136788   -1.609572
H     -0.884307   -1.340240   -0.732326
H     -5.089849   -0.140811   -0.860878
H     -5.564841    1.592148   -0.777228
H     -0.261753    0.103239    1.283870
H     -0.796989    1.549986    0.391604
H     -4.738078   -0.215172    1.558310
