42

C      6.368531    0.427056   -1.165523
C      0.528103   -1.340902    2.300784
C      4.966790    0.879940   -0.765882
C      4.056396   -0.314586   -0.798331
C      2.629519    0.016963   -0.419477
C     -6.021387    0.231674   -2.275741
C      2.542621    0.581728    0.976057
C     -5.942723   -0.743089   -1.326082
C     -5.284362    1.397446   -2.124231
C      1.153518    0.920178    1.392327
C     -5.145197   -0.573267   -0.235052
C     -4.488209    1.554968   -1.024881
C     -3.519224    0.780764    1.133449
C      0.188685   -0.215652    1.402777
C     -4.392504    0.579768   -0.048459
C     -2.158507    0.240016    0.782746
O     -1.922051   -0.270464   -0.347589
O     -1.107928    0.280907    1.688892
H      6.904605    1.278226   -1.623268
H      6.865922    0.049006   -0.255864
H      6.267967   -0.417400   -1.876631
H      1.064506   -1.057404    3.223791
H      1.081083   -2.153577    1.782144
H     -0.423593   -1.832168    2.664278
H      4.995570    1.281514    0.269256
H      4.588609    1.629651   -1.467386
H      4.119301   -0.809372   -1.787523
H      4.396694   -1.091338   -0.059874
H      2.211662    0.748230   -1.137055
H      2.050205   -0.925452   -0.532218
H     -6.639910    0.119617   -3.138578
H      3.111566   -0.019370    1.712847
H      3.096715    1.568801    0.932819
H     -6.526676   -1.662472   -1.449760
H     -5.353421    2.157932   -2.877029
H      1.197700    1.344357    2.415291
H      0.781721    1.735122    0.738421
H     -5.084190   -1.340546    0.511057
H     -3.920135    2.466191   -0.918867
H     -3.469765    1.835628    1.449074
H     -3.902359    0.106072    1.931289
H      0.134148   -0.610252    0.348005
