41

C     -5.486088    1.461375    1.268904
C     -0.829604   -1.881237   -0.111487
C     -4.160085    1.143249    1.885486
C     -3.674728   -0.233436    1.450337
C     -3.522067   -0.292629   -0.055387
C     -2.549350    0.666346   -0.610678
C      5.790764   -0.078654   -1.415413
C     -1.128270    0.589260   -0.248996
C      4.456577   -0.189590   -1.724642
C      6.175854   -0.048709   -0.097521
C      3.896171   -0.240239    0.543302
C     -0.331526   -0.591307   -0.662002
C      3.476859   -0.273087   -0.748874
C      5.228540   -0.129552    0.910979
C      2.079551   -0.389111   -1.149042
N      5.595252   -0.101238    2.282318
O      1.800131   -0.410346   -2.373198
O      6.900802    0.007235    2.647892
O      4.718918   -0.175939    3.148104
O      1.035753   -0.477821   -0.259277
H     -6.048711    0.561077    0.957983
H     -5.378772    2.158149    0.391376
H     -6.090314    2.022592    2.010734
H      0.048447   -2.584797    0.126013
H     -1.383338   -1.853389    0.819986
H     -1.403698   -2.435650   -0.913343
H     -3.445614    1.930308    1.625116
H     -4.273395    1.102479    2.976626
H     -4.464741   -0.961135    1.726267
H     -2.753770   -0.427205    1.990121
H     -4.527619   -0.017904   -0.487122
H     -3.353271   -1.315846   -0.356408
H     -2.887832    1.731567   -0.474841
H     -2.600314    0.537376   -1.743219
H      6.566529   -0.012547   -2.186670
H     -0.632717    1.509690   -0.690590
H     -0.980912    0.773537    0.865416
H      4.158262   -0.212737   -2.776227
H      7.203274    0.036628    0.196125
H      3.147295   -0.304109    1.322123
H     -0.372243   -0.592656   -1.804586
