30

C      3.809942    0.057806    0.979425
C     -2.162690   -2.303726    0.753250
C      2.580245    0.776872    0.467048
C      2.180554    0.196572   -0.872718
C      0.967225    0.858019   -1.446566
C     -0.246519    0.734036   -0.565653
C     -0.617702   -0.697721   -0.331502
C     -1.824644   -0.855005    0.543641
N     -3.695489    0.734328    0.465301
O     -3.291540    2.023129    0.373952
O     -4.732804    0.443553    1.050336
O     -2.935877   -0.252987   -0.102440
H      3.542744   -0.753004    1.694510
H      4.536539    0.730643    1.459342
H      4.299631   -0.427261    0.118223
H     -3.235931   -2.378406    1.007020
H     -1.579223   -2.710440    1.609778
H     -1.951753   -2.923708   -0.130103
H      2.808284    1.840647    0.419730
H      1.786130    0.628431    1.230505
H      3.029944    0.414886   -1.567274
H      2.100688   -0.904592   -0.836340
H      1.192526    1.921764   -1.645389
H      0.758172    0.377408   -2.424662
H     -1.098486    1.195065   -1.144815
H     -0.170016    1.325886    0.358253
H      0.248520   -1.231479    0.109120
H     -0.849630   -1.167221   -1.308916
H     -1.703984   -0.390729    1.541637
H     -3.744856    2.737232   -0.182408
