41

C     -5.368471   -0.160327    1.701975
C     -0.395297    1.771260   -0.559358
C     -5.356328   -0.658346    0.257923
C     -4.677781    0.366486   -0.601073
C     -3.233503    0.651260   -0.176470
C     -2.455166   -0.600676   -0.272337
C      5.877486   -1.188901   -1.267514
C     -1.031301   -0.588784    0.100922
C      4.539292   -1.003884   -1.621662
C      6.322836   -0.907401    0.006236
C      4.095136   -0.259118    0.563183
C     -0.106847    0.296518   -0.634406
C      3.628003   -0.533154   -0.701334
C      5.412712   -0.436056    0.929486
C      2.237439   -0.349007   -1.096682
N      5.871217   -0.142670    2.252851
O      1.853788   -0.615715   -2.275337
O      7.154658   -0.304089    2.646527
O      5.034266    0.284354    3.080151
O      1.254560    0.115168   -0.250957
H     -6.113072   -0.724856    2.291878
H     -4.335726   -0.255441    2.093842
H     -5.653963    0.911980    1.754058
H     -0.998204    2.060369    0.312357
H      0.571162    2.360250   -0.412836
H     -0.768044    2.198699   -1.532463
H     -6.440379   -0.644901   -0.068383
H     -4.945175   -1.661217    0.234548
H     -5.267838    1.316521   -0.482298
H     -4.697536    0.089499   -1.669763
H     -2.891942    1.411634   -0.915628
H     -3.288871    1.028792    0.851481
H     -2.986330   -1.355643    0.390337
H     -2.625957   -1.024913   -1.306591
H      6.582086   -1.557892   -1.996076
H     -0.974039   -0.339644    1.198567
H     -0.663027   -1.652947   -0.043631
H      4.223967   -1.237271   -2.638329
H      7.361988   -1.045956    0.298476
H      3.389731    0.107011    1.281480
H     -0.135529   -0.020550   -1.723149
