53

C      8.346850    1.007134   -0.833318
C     -8.348679    0.698996    0.091452
C     -2.147744    0.369427    0.907768
C      7.334573    0.544665    0.187696
C     -6.939830    0.427647    0.496385
C      5.962968    0.993902   -0.321893
C     -6.248418   -0.422952   -0.578141
C      4.875959    0.585627    0.642267
C     -4.814054   -0.610938   -0.013883
C      3.555537    1.080652    0.059081
C      2.419617    0.731827    0.980179
C     -3.992730   -1.423577   -0.944208
C      2.271439   -0.726918    1.196872
C     -2.630873   -1.725115   -0.451211
C      1.964574   -1.412309   -0.115661
C     -1.743638   -0.594886   -0.165357
C      0.679075   -0.777293   -0.591160
O      0.596376   -0.003625   -1.557248
O     -0.439601   -1.111044    0.134195
H      8.653997    2.042840   -0.499040
H      9.246279    0.357774   -0.859176
H      7.850201    1.144191   -1.794312
H     -8.566191    0.169344   -0.847886
H     -9.049790    0.341574    0.874580
H     -8.465601    1.793547   -0.081740
H     -2.472934    1.363773    0.552542
H     -1.190340    0.650069    1.503877
H     -2.887716   -0.010842    1.632290
H      7.475660    1.066557    1.150320
H      7.331271   -0.558961    0.326848
H     -6.332891    1.324359    0.688557
H     -6.946704   -0.138730    1.466035
H      5.744636    0.613150   -1.323155
H      6.003925    2.119386   -0.303298
H     -6.729245   -1.398834   -0.667187
H     -6.175028    0.158793   -1.497691
H      4.834720   -0.523543    0.718525
H      5.090755    1.056329    1.613726
H     -4.905771   -1.081718    0.961293
H     -4.466746    0.454349    0.063034
H      3.466573    0.672069   -0.947918
H      3.620138    2.187710   -0.003718
H      2.510915    1.297173    1.934590
H      1.478011    1.105035    0.496404
H     -3.917688   -0.891430   -1.955626
H     -4.542438   -2.385350   -1.187787
H      1.369668   -0.876015    1.856003
H      3.133481   -1.201591    1.700773
H     -2.766027   -2.341197    0.500001
H     -2.135335   -2.455187   -1.173062
H      1.831860   -2.501832    0.013997
H      2.773728   -1.229135   -0.824607
H     -1.566776    0.045124   -1.082857
