28

C     -3.766235    0.708423    0.643563
C      3.150705   -1.072469   -0.194565
C     -3.395506   -0.538045   -0.102081
C     -2.042863   -0.451844   -0.752984
C     -1.022273   -0.220275    0.324803
C      0.390168   -0.119119   -0.250994
C      1.316054    0.109153    0.897929
C      2.759711    0.232014    0.492909
N      3.934417    2.323397    0.100188
O      4.793777    1.975577    0.948135
O      3.026488    1.357283   -0.281265
H     -3.125443    0.904944    1.528666
H     -4.804457    0.561596    1.028465
H     -3.788262    1.568775   -0.067562
H      2.641650   -1.882811    0.362317
H      4.251716   -1.243821   -0.124004
H      2.815312   -1.090953   -1.235069
H     -3.366454   -1.377955    0.642224
H     -4.204859   -0.773835   -0.809198
H     -2.066772    0.440751   -1.438883
H     -1.859257   -1.333237   -1.365479
H     -1.056003   -1.071234    1.035770
H     -1.223455    0.749952    0.805904
H      0.428193    0.676269   -1.017615
H      0.649890   -1.075469   -0.786490
H      1.009751    1.058197    1.397943
H      1.163994   -0.704023    1.634124
H      3.390010    0.288759    1.404294
