47

C      5.424381    1.798315    0.894513
C      0.643631   -2.109204   -0.675153
C      5.440650    0.285062    1.110193
C      5.621603   -0.420035   -0.197672
C      4.506742   -0.100045   -1.167378
C      3.206713   -0.552821   -0.522908
C     -5.868331    2.298884   -0.717872
C     -4.549486    2.459953   -1.082141
C     -4.841132   -1.908361    1.274218
C      2.093703   -0.236576   -1.484153
C     -6.325823    1.183160   -0.034810
C     -5.793931   -0.949348    0.972527
C     -3.638746    1.481344   -0.761236
C     -3.514181   -1.773896    0.922205
C      0.740122   -0.642162   -0.954735
C     -5.400916    0.199310    0.285842
C     -4.071721    0.343520   -0.071765
C     -3.155475   -0.633535    0.247152
C     -0.901573    0.022853    0.654988
N     -1.809805   -0.444007   -0.137772
O      0.383783    0.159433    0.149283
S     -1.254115    0.486795    2.350747
H      6.101795    2.298164    1.620549
H      4.408248    2.211442    1.081952
H      5.751812    2.063790   -0.124065
H      0.693853   -2.646368   -1.646338
H      1.392703   -2.477865    0.043164
H     -0.348060   -2.323688   -0.249818
H      4.587737   -0.056376    1.704280
H      6.356227    0.051867    1.728339
H      5.729692   -1.490670   -0.015181
H      6.579127   -0.055985   -0.639364
H      4.442536    0.998098   -1.283465
H      4.665094   -0.606434   -2.119591
H      3.214607   -1.617249   -0.275189
H      3.057938    0.113143    0.365469
H     -6.577618    3.089416   -0.982697
H     -4.208371    3.348343   -1.621116
H     -5.108074   -2.819501    1.809414
H      2.099778    0.843431   -1.673121
H      2.311687   -0.738478   -2.442755
H     -7.338719    1.047856    0.251051
H     -6.809552   -1.087724    1.260573
H     -2.585494    1.586960   -1.040057
H     -2.753467   -2.509334    1.147189
H      0.001671   -0.411304   -1.760506
H     -2.601243    0.239829    2.628944
