45

C      4.820751    1.580952   -1.528304
C      1.229111   -2.890353   -0.881924
C      5.186836    0.294526   -0.826059
C      4.790188    0.201774    0.575010
C      3.417710    0.340625    1.037198
C      2.339517   -0.575068    0.607723
C     -6.248087    1.288967    2.575631
C     -5.173892    0.833384    3.336771
C      2.061481   -0.529819   -0.842513
C     -6.107130    1.276200    1.205456
C     -4.032353    0.395178    2.709379
C     -4.818001    0.822509   -0.789887
C     -3.644846    0.370755   -1.390096
C     -2.721426   -0.067747    0.728895
C      0.909510   -1.462157   -1.234869
C     -4.938968    0.827144    0.582571
C     -3.886235    0.380040    1.348002
C     -2.584956   -0.078780   -0.638606
C     -1.380542   -0.540769   -1.313953
O     -1.266591   -0.547253   -2.565703
O     -0.271159   -1.008164   -0.600765
H      5.395227    2.454304   -1.138291
H      5.146614    1.463805   -2.587355
H      3.731120    1.767341   -1.558398
H      1.031713   -3.022230    0.208274
H      0.540151   -3.566569   -1.428039
H      2.246306   -3.154040   -1.170643
H      5.061319   -0.539316   -1.502126
H      6.355841    0.379997   -0.789228
H      5.151018   -0.828114    0.938216
H      5.488840    0.874064    1.193493
H      3.448982    0.234154    2.185845
H      3.016421    1.398933    0.944580
H      1.389457   -0.284466    1.150263
H      2.566025   -1.612624    0.978969
H     -7.156249    1.639276    3.024193
H     -5.315595    0.856184    4.400624
H      1.746392    0.482199   -1.123179
H      2.912208   -0.866808   -1.421060
H     -6.904971    1.616398    0.574573
H     -3.218378    0.048715    3.324670
H     -5.659466    1.178692   -1.365326
H     -3.584225    0.380746   -2.459629
H     -1.905563   -0.413894    1.313304
H      0.835893   -1.398690   -2.339888
