37

C     -3.693499    1.630010    0.702779
C     -0.636565   -1.797117    0.457942
C      3.945237   -1.027987    1.772760
C      0.868449    1.368521   -1.327353
C      2.127703    1.461938   -1.897474
C      1.758140    0.146660    0.474417
C     -0.676062    0.632056    0.436454
C     -3.586721    0.197859    1.022273
C      0.665199    0.712613   -0.138355
C      3.215140    0.880036   -1.255605
C      3.033879    0.216935   -0.061459
C     -1.632303   -0.704758   -1.434736
C     -1.469096   -0.562676    0.003778
N     -1.155738   -1.697993   -2.092033
N     -2.694776   -0.596512    0.719373
O     -4.659376   -0.337082    1.783414
O      4.492431    0.961092   -1.810447
O     -2.324615    0.254371   -2.148665
O      4.143765   -0.351884    0.550704
H     -3.099225    2.263300    1.428663
H     -4.772360    1.979117    0.823453
H     -3.446265    1.915880   -0.319741
H     -0.486609   -1.764740    1.548783
H     -1.176425   -2.729465    0.219880
H      0.330849   -1.797954   -0.063770
H      4.940392   -1.227587    2.241434
H      3.395122   -1.976675    1.610287
H      3.367489   -0.437587    2.508451
H      0.035160    1.843130   -1.868335
H      2.284640    1.979294   -2.834207
H      1.620473   -0.370473    1.404497
H     -1.172874    1.598429    0.226061
H     -0.591748    0.578130    1.553062
H     -0.623108   -2.489341   -1.727070
H     -4.783626   -1.358047    1.841769
H      5.262382    0.531222   -1.325412
H     -2.805461    0.077286   -3.025571
