42

C     -1.839983    3.643143    0.251476
C     -0.365837   -0.282354    1.668981
C      6.378611    0.553785   -0.421053
C     -2.907879    2.571326    0.188031
C     -4.289935   -3.023009    0.386460
C     -3.379375   -3.020762    1.416203
C     -4.070269   -2.211176   -0.703558
C     -2.252945   -2.215017    1.365365
C     -2.954190   -1.420922   -0.740584
C      3.791979   -0.396302   -0.014101
C      3.079430    0.583204   -2.062449
C      2.513650   -0.864504    0.185290
C      1.793177    0.093581   -1.830108
C     -2.026656   -1.404962    0.285794
C      4.066189    0.329248   -1.144826
C      1.470063   -0.633910   -0.718435
C     -1.291900    0.786011   -0.254731
C     -0.809582   -0.522652    0.211514
O     -0.906175    1.456919   -1.206614
O      5.346797    0.808408   -1.361610
O     -2.344752    1.336388    0.506425
O      0.217496   -1.113455   -0.490472
H     -2.193624    4.536997    0.813400
H     -0.950332    3.242542    0.769250
H     -1.562111    3.947742   -0.779995
H     -1.274733   -0.015123    2.267064
H      0.255119    0.643839    1.648485
H      0.154181   -1.148546    2.071990
H      6.712059   -0.501781   -0.492445
H      6.045103    0.794164    0.625051
H      7.265412    1.176963   -0.640888
H     -3.427030    2.559226   -0.786521
H     -3.662058    2.814451    0.953659
H     -5.175470   -3.667868    0.445289
H     -3.542557   -3.656545    2.279893
H     -4.779578   -2.204266   -1.519986
H     -1.560927   -2.239735    2.191642
H     -2.784235   -0.776459   -1.610897
H      4.567917   -0.608748    0.729185
H      3.306252    1.157617   -2.952975
H      2.314389   -1.431281    1.074863
H      1.074307    0.323822   -2.603066
