42

C     -1.037286    3.771476   -0.055081
C     -0.692747   -0.708084   -1.781838
C      5.953594    1.294161   -0.185975
C     -2.262695    2.898633    0.053276
C     -4.524191   -2.890071    0.369142
C     -3.298893   -3.399311    0.745280
C     -4.596357   -1.649059   -0.218163
C     -2.144386   -2.672378    0.536757
C     -3.414968   -0.914272   -0.427543
C      3.654637   -1.175450    1.288689
C      3.234099    0.557180   -0.258143
C      2.306259   -1.519389    1.235167
C      1.885755    0.221978   -0.319016
C     -2.203226   -1.420755   -0.053762
C      4.111132   -0.125469    0.530486
C      1.409041   -0.824851    0.431668
C     -1.127942    0.717933    0.214461
C     -0.956820   -0.661809   -0.285107
O     -0.441501    1.167053    1.187724
O      5.457644    0.200405    0.598662
O     -2.025082    1.576458   -0.341653
O      0.111969   -1.236874    0.447152
H     -1.141695    4.508401   -0.894317
H     -0.188795    3.107821   -0.344332
H     -0.815902    4.313876    0.871744
H     -0.773584    0.316354   -2.232078
H     -1.448226   -1.321465   -2.310856
H      0.288401   -1.181910   -1.995726
H      6.949102    1.613227    0.165924
H      5.272903    2.158196   -0.014366
H      5.981833    1.041197   -1.252408
H     -3.037099    3.315770   -0.628437
H     -2.663644    2.994127    1.075981
H     -5.409417   -3.495391    0.551572
H     -3.233723   -4.383339    1.211689
H     -5.550055   -1.248356   -0.512948
H     -1.179940   -3.069393    0.831052
H     -3.556320    0.050583   -0.904334
H      4.345754   -1.724328    1.919164
H      3.584697    1.377958   -0.852418
H      1.969039   -2.352843    1.843349
H      1.208636    0.772013   -0.951041
