33

C      1.774345   -1.636795    1.658831
C     -3.083035    3.229790   -1.132900
C     -3.083462   -1.667087    1.548572
C      0.250436    0.755813   -1.403840
C     -0.866544    1.551950   -1.295088
C      1.434505   -1.338563   -0.806083
C     -0.806827   -0.829784   -0.019516
C      2.390665   -1.309574    0.316367
C      0.287878   -0.444718   -0.763754
C     -1.954744    1.158853   -0.549193
C     -1.941181   -0.057353    0.110135
C      3.261949   -0.124790    0.362145
N      3.103097    0.955081   -0.313704
O      4.400407   -0.100316    1.207341
O     -3.067940    1.985782   -0.459080
O     -3.041808   -0.446462    0.859375
H      2.557327   -1.570117    2.448800
H      1.355373   -2.639993    1.708241
H      1.041773   -0.825343    1.910321
H     -3.007448    3.084785   -2.228866
H     -3.941296    3.851779   -0.831655
H     -2.166628    3.816571   -0.840463
H     -4.104574   -1.888317    1.899942
H     -2.733111   -2.454545    0.837103
H     -2.388829   -1.566359    2.426587
H      1.040702    1.148760   -2.025969
H     -0.914616    2.532039   -1.808454
H      1.981533   -1.084135   -1.768127
H      1.072100   -2.392588   -1.023472
H     -0.834383   -1.786985    0.518473
H      3.108025   -2.183669    0.132617
H      3.710147    1.786123   -0.284768
H      5.166164    0.490167    0.916602
