42

C     -4.458531   -2.305263    0.555156
C     -0.487313   -0.286288   -1.962748
C      4.602228    1.286930    1.380807
C     -3.068753   -2.027608    1.062413
C     -2.265694    4.122271   -0.483987
C     -3.024033    2.991302   -0.634976
C     -0.887532    3.979819   -0.353332
C      3.842672   -2.620659    0.206141
C      2.591350   -2.912034   -0.283614
C     -2.427483    1.738660   -0.656310
C     -0.317122    2.719514   -0.377721
C      4.075100   -1.318165    0.590707
C      1.585333   -1.949479   -0.395890
C     -1.077989    1.571064   -0.530002
C      3.093123   -0.344457    0.489225
C      1.820625   -0.647694   -0.010367
C     -1.151461   -0.699253    0.340801
C     -0.413245    0.215138   -0.544968
O     -0.578114   -1.140150    1.385353
O      3.319946    0.968777    0.874423
O     -2.442010   -1.144483    0.151490
O      0.903009    0.378375   -0.077201
H     -5.089595   -2.834344    1.289239
H     -4.913485   -1.308238    0.311464
H     -4.373959   -2.871064   -0.384924
H      0.550556   -0.427758   -2.358646
H     -1.116614   -1.193406   -2.075156
H     -0.958203    0.480359   -2.591952
H      4.911885    0.645476    2.215271
H      5.372735    1.171649    0.579957
H      4.661527    2.340657    1.727439
H     -3.081824   -1.627675    2.094723
H     -2.472012   -2.980437    1.058750
H     -2.687746    5.118465   -0.461691
H     -4.084793    3.085980   -0.736522
H     -0.298899    4.883153   -0.234552
H      4.630551   -3.350970    0.299612
H      2.364141   -3.914963   -0.595966
H     -3.055405    0.852701   -0.782687
H      0.747768    2.590469   -0.277999
H      5.050620   -1.015312    0.990258
H      0.608642   -2.221058   -0.792017
