25

C     -0.596396   -2.038381   -1.107798
C     -3.223715    1.279705   -0.289739
C      2.718490   -0.030751    1.487692
C      1.586807   -0.793090    1.342613
C      2.926231    1.033868    0.635673
C      0.907106    0.561788   -0.467040
C     -0.538835   -1.355197    0.243612
C      0.659086   -0.509373    0.360254
C      2.036773    1.357026   -0.354771
C     -1.797011   -0.553183    0.437085
O      2.282249    2.435680   -1.191137
O     -2.608627   -0.825411    1.370957
O     -2.049133    0.482970   -0.421178
H     -1.442452   -2.738470   -1.076939
H      0.332790   -2.615149   -1.217610
H     -0.763885   -1.313685   -1.923437
H     -3.240826    1.662367    0.765668
H     -4.134642    0.692374   -0.466985
H     -3.111634    2.124269   -0.987641
H      3.455515   -0.255369    2.267386
H      1.427946   -1.632195    2.017896
H      3.818381    1.645610    0.739815
H      0.206856    0.818017   -1.248523
H     -0.531036   -2.155564    1.010232
H      1.679965    2.722143   -1.926086
