34

C      3.731038   -1.975451   -0.217597
C      0.532623    3.837087    0.652185
C     -0.312288    0.407915   -1.794860
C      2.985445   -0.871802    0.464378
C     -0.713403    3.517288   -0.127335
C     -3.079089   -2.804725    0.574500
C     -2.273785   -2.315345    1.577489
C     -3.046693   -2.245523   -0.687251
C     -1.424354   -1.239536    1.285943
C     -2.190050   -1.172124   -0.952792
C     -1.393726   -0.685745    0.033276
C      0.834800    0.266077    0.314978
C     -0.489540    0.484622   -0.272450
O      1.232684    0.955898    1.265233
O      1.701347   -0.711487   -0.156436
S     -1.369438    1.927080    0.231516
H      3.411747   -2.030880   -1.274911
H      3.541109   -2.910932    0.337122
H      4.822962   -1.758391   -0.228228
H      0.410845    3.454955    1.678204
H      1.399108    3.381459    0.175276
H      0.670026    4.955907    0.738555
H      0.671005    0.903301   -2.011010
H     -0.188258   -0.643626   -2.108442
H     -1.076348    0.969884   -2.330591
H      3.572357    0.055763    0.370670
H      2.875455   -1.086720    1.541623
H     -0.578221    3.737021   -1.214425
H     -1.472514    4.292554    0.206641
H     -3.762846   -3.644839    0.749973
H     -2.331175   -2.781431    2.546307
H     -3.663361   -2.602998   -1.495897
H     -0.813743   -0.892606    2.105646
H     -2.213722   -0.772654   -1.977291
