21

C     -1.994842    1.156065   -0.745266
C      2.013470    0.688971    0.827332
C      0.656968    0.664072    0.663647
C      2.808710   -0.166033    0.098482
C      0.800752   -1.044042   -0.941647
C     -1.447974   -0.200297   -0.373501
C      0.016264   -0.185621   -0.208438
C      2.187535   -1.037971   -0.792689
C     -2.094095   -0.607834    0.921516
Cl     3.212596   -2.123062   -1.716008
O     -2.077336   -1.787962    1.327855
O     -2.736592    0.334269    1.711464
Na     0.000000    0.000000    0.000000
H     -2.099162    1.781620    0.161065
H     -3.006477    1.060326   -1.190733
H     -1.338389    1.639227   -1.521009
H      2.510181    1.364631    1.519472
H      0.053288    1.341762    1.244087
H      3.888166   -0.180337    0.196385
H      0.385953   -1.746635   -1.650898
H     -1.739014   -0.951148   -1.115571
