21

C     -1.991154   -0.829882   -0.905060
C      0.860778    1.104410   -0.720392
C      0.532264   -0.771355    0.663904
C      2.212529    0.929506   -0.608953
C      1.895953   -0.944497    0.773895
C     -1.492603    0.411842   -0.180823
C     -0.001967    0.256098   -0.085232
C      2.750584   -0.090561    0.134705
C     -2.084995    0.561228    1.152622
Cl     4.480559   -0.289498    0.259004
O     -2.686982   -0.373848    1.740278
O     -1.984287    1.776960    1.802213
Na     0.000000    0.000000    0.000000
H     -2.998980   -0.607723   -1.293617
H     -1.293685   -0.975020   -1.774355
H     -1.955188   -1.731715   -0.267744
H      0.458553    1.913060   -1.310228
H     -0.174185   -1.443590    1.167503
H      2.931857    1.593883   -1.106939
H      2.276782   -1.762057    1.370585
H     -1.735832    1.272758   -0.811366
