27

C     -3.888502    0.396196    0.092448
C      0.484759   -1.645626   -1.858607
C     -2.692689    1.138253    0.661009
C      3.317658    1.058960    1.115899
C      3.069771   -0.223794    1.551522
C      2.491489    1.586551    0.156366
C      2.021256   -0.958529    1.038825
C      1.445260    0.888448   -0.372798
C      1.225007   -0.391273    0.084532
C     -1.090989   -0.247728   -0.550405
C      0.087736   -1.138017   -0.496754
Cl    -0.340277   -2.524847    0.543765
O     -1.629434    0.013926   -1.631904
O     -1.571896    0.280389    0.629405
H     -3.989113    0.586658   -1.000949
H     -4.824263    0.791608    0.550289
H     -3.758566   -0.685403    0.215284
H      1.576260   -1.916414   -1.782546
H      0.418325   -0.824609   -2.579973
H     -0.095707   -2.535032   -2.140521
H     -2.561552    2.070569    0.113597
H     -2.890613    1.352407    1.745537
H      4.152859    1.640561    1.526122
H      3.703890   -0.681112    2.314303
H      2.676975    2.591937   -0.192463
H      1.825946   -1.977970    1.386451
H      0.836412    1.353889   -1.118434
