24

C     -0.585605    1.774345    0.850058
C     -3.958159   -0.272285   -0.761987
C      1.296534    0.334326   -0.921453
C      1.672180   -0.930994    1.034094
C      2.566220   -0.019610   -1.365358
C      2.949444   -1.288769    0.590648
C     -0.488868    0.246596    0.755397
C      0.848021   -0.130413    0.295809
C      3.389869   -0.824354   -0.619153
C     -1.563305   -0.172609   -0.182443
Cl     4.998692   -1.250416   -1.221920
O     -1.258884   -0.783669   -1.237744
O     -2.884626    0.087600    0.068338
H     -0.760877    2.164155   -0.168672
H     -1.520450    1.972476    1.421788
H      0.266509    2.216497    1.361254
H     -4.190118    0.534130   -1.514036
H     -4.865586   -0.326486   -0.116852
H     -3.776590   -1.188399   -1.339995
H      0.702011    0.977130   -1.571420
H      1.360691   -1.315326    1.990197
H      2.949081    0.327143   -2.314612
H      3.563914   -1.929434    1.219809
H     -0.710096   -0.201634    1.749584
