35

C     -1.335723    1.828641   -0.483113
C      5.158505   -1.189920    1.088725
C     -4.578086   -1.569891    1.490509
C      4.509829   -1.905964    0.133154
C      4.654541    0.037583    1.463103
C     -3.771206   -2.273229    0.622287
C     -4.297002   -0.229982    1.662478
C      3.375448   -1.418209   -0.448584
C      3.492468    0.544949    0.871961
C     -2.716069   -1.640873   -0.048621
C     -3.258856    0.398020    1.003940
C      1.632550    0.284026   -0.744259
C      2.862669   -0.208367   -0.092097
C     -2.439627   -0.305346    0.125422
C     -1.369773   -0.037051   -2.018377
C     -1.329417    0.323361   -0.601729
O     -2.280973   -0.756455   -2.477638
O     -0.404559    0.393294   -2.940394
S      0.206768   -0.274644    0.199607
H     -0.485340    2.208702   -1.085500
H     -1.193504    2.148640    0.555914
H     -2.255140    2.275599   -0.904762
H      6.056628   -1.571369    1.552216
H     -5.398884   -2.032533    2.021283
H      4.883866   -2.869820   -0.177949
H      5.122382    0.655062    2.215473
H     -3.975284   -3.332298    0.472217
H     -4.913251    0.343376    2.336320
H      2.853596   -2.000965   -1.221437
H      3.115129    1.512984    1.182889
H     -2.097115   -2.228424   -0.720622
H     -3.025069    1.441825    1.125579
H      1.573637   -0.151246   -1.755511
H      1.665160    1.391938   -0.756762
H     -0.038299   -0.254076   -3.645722
