35

C      0.295046   -1.767673    0.358894
C      4.464053    0.710730    0.593123
C     -3.722985    1.398944    1.252805
C      4.336297    0.690497   -0.758232
C      3.338412    0.861188    1.367982
C     -2.586367    1.115276    1.957865
C     -3.902269    0.826188    0.004872
C      3.114713    0.816072   -1.367011
C      2.111572    0.987109    0.743148
C     -1.625603    0.254760    1.411421
C     -2.951067   -0.011914   -0.510961
C      0.698683    1.122305   -1.360800
C      1.939296    0.971612   -0.616768
C     -1.766472   -0.327418    0.187310
C     -1.658584   -2.397482   -1.001640
C     -0.813796   -1.243392   -0.485277
O     -1.752409   -2.698636   -2.200089
O     -2.338051   -3.119604   -0.053176
S     -0.134068   -0.340362   -1.900625
H      1.262807   -1.604729   -0.192410
H      0.171111   -2.869393    0.563899
H      0.377797   -1.202706    1.290138
H      5.461551    0.606518    1.021433
H     -4.459481    2.067479    1.688402
H      5.242573    0.570130   -1.365347
H      3.449495    0.875949    2.442758
H     -2.425959    1.552238    2.935378
H     -4.817625    1.086892   -0.503968
H      3.101423    0.789865   -2.447793
H      1.237633    1.109944    1.360809
H     -0.773707    0.083441    2.027712
H     -3.129421   -0.436076   -1.484190
H      0.938602    1.779285   -2.253483
H      0.032338    1.789221   -0.720444
H     -2.715538   -4.046257   -0.211745
