38

C     -1.190548    1.526788   -1.856921
C     -2.871614    3.093008    1.699079
C      5.277814   -0.896025   -0.156770
C     -3.131703   -2.719226   -0.137677
C      4.642996   -1.268378    1.005304
C      4.554184   -0.255672   -1.144032
C     -2.559755   -2.140303    0.958212
C     -2.948416   -2.147772   -1.387936
C      3.295089   -0.992929    1.158074
C      3.206495    0.011116   -0.972580
C     -1.805724   -0.995534    0.819749
C     -2.191697   -1.001273   -1.517266
C      1.119839   -0.096100    0.422539
C      2.564115   -0.352786    0.175356
C     -1.598675   -0.395475   -0.404141
C     -1.144077    1.809363    0.517981
C     -0.783701    0.837115   -0.541978
O     -0.331511    2.362952    1.299068
O     -2.483682    2.160225    0.689489
O      0.539653    0.540700   -0.637051
H     -0.673524    1.098633   -2.711608
H     -2.297290    1.471641   -1.903044
H     -0.938880    2.603018   -1.755836
H     -3.224503    2.484919    2.551981
H     -1.960035    3.659176    1.970289
H     -3.668789    3.729268    1.293742
H      6.334742   -1.102529   -0.297146
H     -3.725090   -3.617624   -0.039037
H      5.224701   -1.775688    1.782762
H      5.063085    0.034805   -2.058195
H     -2.674018   -2.551269    1.964691
H     -3.413033   -2.628193   -2.236014
H      2.842515   -1.306355    2.090699
H      2.621898    0.512011   -1.734483
H     -1.348190   -0.531944    1.700549
H     -2.034753   -0.539781   -2.472344
H      1.050955    0.501182    1.328105
H      0.661126   -1.121064    0.536389
