28

C     -2.534768    1.728892   -0.406045
C      3.762400    0.804446   -0.535601
C     -0.261674   -0.791425   -1.255262
C     -0.401682    0.069990    0.947289
C      1.053018   -1.169685   -1.053018
C      0.914511   -0.309899    1.146522
C     -2.413674    0.230502   -0.495358
C      3.989794   -0.532912    0.064948
C     -0.987133   -0.178363   -0.271704
C      1.644311   -0.928798    0.151203
C     -3.324807   -0.414246    0.458361
N      3.000054   -1.313963    0.373109
O      5.269725   -0.992366    0.316848
O     -4.016879    0.294869    1.227580
O     -3.457792   -1.807112    0.549018
Na     0.000000    0.000000    0.000000
H     -1.690934    2.248605   -0.900266
H     -2.622133    2.047090    0.654757
H     -3.490611    2.045598   -0.900430
H      3.454772    1.543304    0.215720
H      2.918991    0.700327   -1.253904
H      4.663118    1.161517   -1.051015
H     -0.709022   -0.991806   -2.215436
H     -0.949159    0.555961    1.752777
H      1.636022   -1.660181   -1.837586
H      1.369533   -0.109845    2.112939
H     -2.690015   -0.057626   -1.534009
H     -4.125964   -2.172876    1.200717
