23

C      2.470774    1.226878    0.026071
C     -0.383535   -0.313476   -1.347510
C     -0.203251    0.120431    0.997257
C     -1.770614   -0.294567   -1.218058
C     -1.577364    0.131959    1.086503
C      1.883633   -0.118372   -0.335962
C      0.401829   -0.105100   -0.235125
C     -2.373166   -0.072758   -0.005863
C      2.459826   -1.187079    0.513567
N     -3.769760   -0.057973    0.101428
O      3.640765   -1.559438    0.342355
O      1.649493   -1.747083    1.488887
Na     0.000000    0.000000    0.000000
H      3.534982    1.211591   -0.257417
H      2.362529    1.489623    1.078460
H      1.966784    1.992916   -0.621202
H      0.082309   -0.491023   -2.317479
H      0.453339    0.280481    1.850615
H     -2.331347   -0.465113   -2.130087
H     -2.036282    0.309481    2.056231
H      2.153959   -0.312157   -1.390014
H     -4.384488   -0.815931   -0.224227
H     -4.230417    0.776707    0.541569
