23

C     -2.414037    1.092538   -0.836593
C      0.228584    0.734956    0.627308
C      0.368519   -1.133683   -0.849782
C      1.587004    0.767014    0.732537
C      1.744539   -1.123332   -0.760772
C     -1.898370   -0.207803   -0.246886
C     -0.413644   -0.205744   -0.158115
C      2.356480   -0.163611    0.037997
C     -2.506250   -0.496437    1.062986
N      3.774685   -0.125811    0.151368
O     -3.119845    0.353536    1.762685
O     -2.402242   -1.782212    1.567077
Na     0.000000    0.000000    0.000000
H     -1.872048    1.952656   -0.386157
H     -2.267169    1.138303   -1.919420
H     -3.481458    1.233476   -0.569254
H     -0.354198    1.454372    1.164930
H     -0.132733   -1.881812   -1.473824
H      2.060868    1.518051    1.357273
H      2.343854   -1.859195   -1.310471
H     -2.178323   -1.047535   -0.930426
H      4.319280    0.070550   -0.711628
H      4.256501   -0.288280    1.063588
