28

C     -3.451018    0.320306   -1.008091
C      3.726838   -0.660205    0.429202
C     -0.848541    0.916247    0.545927
C     -0.025079   -0.518652   -1.119309
C      0.416917    1.483879    0.695945
C      1.239901    0.009902   -1.007316
C     -2.417289   -0.688037   -0.519991
C      3.766886    0.805434    0.240507
C     -1.093847   -0.090914   -0.359691
C      1.455809    1.013575   -0.095710
C     -2.915695   -1.362340    0.696516
N      2.766150    1.548904    0.008418
O      5.020134    1.418192    0.326759
O     -2.210288   -1.376283    1.725867
O     -4.145008   -1.981243    0.730117
H     -4.072111   -0.097151   -1.824030
H     -4.146966    0.562000   -0.170483
H     -2.969603    1.238930   -1.395802
H      2.719367   -1.001049    0.743817
H      3.956792   -1.218894   -0.519605
H      4.492503   -1.001128    1.177729
H     -1.672824    1.264997    1.150193
H     -0.207196   -1.319452   -1.843494
H      0.612477    2.274792    1.406184
H      2.002926   -0.382363   -1.634532
H     -2.370201   -1.485994   -1.314652
H      5.065177    2.411870    0.462257
H     -4.696210   -2.085321    1.596657
