28

C     -1.847430   -1.904049    0.493118
C      3.352512   -0.593433    0.455847
C      0.539669    1.126005   -2.135253
C     -0.628578    0.485010   -1.742321
C      1.449793    1.411997   -1.154738
C      0.045289    0.437639    0.546125
C     -2.139025   -0.534094   -0.086473
C      3.170755    0.596805    1.317307
C     -0.882631    0.142741   -0.433576
C      1.208846    1.073931    0.167620
C     -2.922642    0.277552    0.900387
N      2.160972    1.375982    1.176262
O      4.124946    0.850901    2.287087
O     -2.441122    1.373894    1.289954
O     -4.128607   -0.184875    1.350452
Na     0.000000    0.000000    0.000000
H     -2.718097   -2.565851    0.349061
H     -1.004142   -2.326302   -0.112162
H     -1.563010   -1.813762    1.562087
H      4.436673   -0.900231    0.452868
H      3.023326   -0.394442   -0.572301
H      2.788142   -1.450813    0.884426
H      0.689230    1.373043   -3.180340
H     -1.379737    0.241949   -2.509219
H      2.371523    1.912360   -1.432396
H     -0.103866    0.191178    1.588961
H     -2.760839   -0.691462   -0.986184
H     -4.841951    0.488327    1.618968
