37

C     -3.224963   -1.184222   -0.585244
C     -3.611508    0.269890   -0.708508
C     -1.943754   -1.337926    0.152192
C      2.802479    1.712121   -0.555159
C      1.656723    0.945792   -0.477882
C     -3.787274    0.917579    0.647354
C      3.910158    0.181885    0.878449
C      3.922006    1.317206    0.128572
C      1.607422   -0.209876    0.269821
C     -0.769452   -0.631188   -0.516249
C      2.724003   -0.585389    0.940933
C     -0.566373   -1.193063   -1.880939
N      0.408407   -0.943773    0.316401
N      5.119306    2.110983    0.053486
N      2.793145   -1.741488    1.725308
O     -4.142222    2.251581    0.460822
O     -1.139361   -2.241488   -2.266363
O      0.269265   -0.564684   -2.766937
O      5.089270    3.245583   -0.708975
O      6.126656    1.745361    0.673272
O      1.771295   -2.322000    2.395564
O      3.927701   -2.319673    1.822975
Na     0.000000    0.000000    0.000000
H     -4.030216   -1.640811    0.063466
H     -3.284894   -1.721353   -1.530724
H     -2.866606    0.808537   -1.318002
H     -4.616319    0.284214   -1.187634
H     -1.654073   -2.421332    0.197938
H     -2.011722   -0.994012    1.181945
H      2.848161    2.623080   -1.142727
H      0.812148    1.353085   -1.041047
H     -4.539122    0.367671    1.233267
H     -2.840064    0.862968    1.243585
H      4.771532   -0.142937    1.418058
H     -0.922420    0.444351   -0.558902
H      0.302929   -1.777448    0.961376
H     -4.912266    2.530777    1.023223
