22

C     -1.798899   -1.401214   -0.386083
C      2.144804   -0.503814    1.141212
C      0.773541   -0.467097    0.954465
C      3.012809   -0.110967    0.127468
C      1.113689    0.344828   -1.232808
C     -1.217584    0.004871   -0.455588
C      0.259628   -0.041478   -0.235960
C      2.501616    0.319782   -1.076762
C     -1.872982    0.902862    0.507142
Cl     3.550137    0.831429   -2.402287
N     -2.483876    1.945647    0.102818
O     -1.804933    0.578649    1.868628
H     -0.988312   -2.113600   -0.110769
H     -2.246845   -1.717602   -1.348989
H     -2.582595   -1.442079    0.411782
H      2.533030   -0.839727    2.079605
H      0.143609   -0.784660    1.778473
H      4.093193   -0.132411    0.254328
H      0.735598    0.680841   -2.170895
H     -1.422526    0.375950   -1.477856
H     -2.572350    2.243047   -0.881708
H     -1.870751    1.326743    2.553783
