38

C     -4.448322   -0.579235   -0.776981
C     -1.083634    1.878140   -1.177410
C     -1.666668    0.919709   -1.928578
C      0.835749   -1.713537    2.133503
C     -0.212009   -1.042231    2.661982
C      2.675344   -1.533476    0.489858
C     -1.351913    2.280891    1.367948
C      1.634293    0.727523   -0.619350
C     -1.234102   -0.790317   -0.177318
C      5.054651    0.064184   -1.782335
C      1.409241   -1.100275    0.929918
C     -1.054076    1.611411    0.282814
C     -2.189943   -0.232885   -1.165075
C      0.929106    0.045505    0.328469
C      3.400717   -0.863718   -0.467970
C      2.898799    0.280584   -1.040964
C     -1.110524    1.427737    2.544376
C     -0.539501    0.291369    0.631446
N     -0.633029    0.162952    2.043942
O     -1.265039    1.679556    3.755729
O     -3.319670    0.141565   -0.407594
O      4.635239   -1.077537   -1.057631
O      3.822110    0.757472   -1.963788
H     -4.239183   -1.655600   -0.608633
H     -4.779350   -0.337367   -1.786335
H     -5.244059   -0.306568   -0.053154
H     -0.701972    2.782603   -1.551602
H     -1.694983    1.077315   -2.971838
H      1.208434   -2.618039    2.566235
H     -0.744166   -1.370598    3.535884
H      3.049136   -2.445405    0.962904
H     -1.710027    3.308907    1.361810
H      1.261970    1.630491   -1.070944
H     -0.469175   -1.405451   -0.705505
H     -1.834334   -1.443450    0.511831
H      5.696182    0.652491   -1.062540
H      5.563672   -0.164384   -2.717367
H     -2.548966   -1.040333   -1.877252
