51

C     -6.891191    1.142904    0.091561
C     -6.115049    0.338821    1.075062
C     -5.105981   -0.587517    0.451867
C     -4.071898    0.116008   -0.364435
C     -3.253795    1.102554    0.386968
C     -2.475772    0.545427    1.525940
C     -1.487524   -0.515778    1.126687
C     -0.456564   -0.008948    0.143424
C      0.460847   -1.172351   -0.164525
C      1.553761   -0.846105   -1.135724
C      2.415777    0.266443   -0.566826
C      3.546019    0.635758   -1.526769
C      4.448711   -0.501405   -1.803815
C      5.176763   -1.114631   -0.671426
C      6.187084   -0.330563    0.068776
C      5.759196    0.899624    0.737824
O      7.333679   -0.081673   -0.694299
O      5.022273    0.863302    1.778487
O      6.135105    2.167874    0.283854
Na     0.000000    0.000000    0.000000
H     -8.001000    0.934553    0.123895
H     -6.818110    2.234291    0.361006
H     -6.592955    1.031953   -0.951911
H     -5.672407    0.992229    1.856051
H     -6.845005   -0.317296    1.623847
H     -5.675570   -1.257162   -0.241296
H     -4.703126   -1.234088    1.243819
H     -4.582695    0.637492   -1.190917
H     -3.414043   -0.640331   -0.815709
H     -2.551540    1.584702   -0.313702
H     -3.916874    1.898698    0.781107
H     -3.100928    0.122390    2.336309
H     -1.896488    1.373399    1.984958
H     -1.980924   -1.390349    0.690355
H     -0.930612   -0.842913    2.028479
H     -1.024200    0.194613   -0.811243
H      0.054388    0.891325    0.481312
H     -0.176871   -2.006972   -0.502165
H      0.895419   -1.491013    0.809208
H      1.201750   -0.628741   -2.140265
H      2.203727   -1.754945   -1.187712
H      1.833670    1.204655   -0.444020
H      2.870233   -0.011168    0.389249
H      3.098829    1.037956   -2.484880
H      4.080858    1.479760   -1.090520
H      5.239271   -0.170798   -2.553994
H      3.822513   -1.292874   -2.314695
H      4.439714   -1.495896    0.115765
H      5.708878   -2.034700   -1.066573
H      6.573808   -1.001996    0.911651
H      7.678852   -0.966521   -0.989278
