37

C      1.734049   -0.027949    1.316372
C      2.121719    1.267458    0.712798
C      1.858605   -1.252989    0.527333
C     -1.959887    1.666668   -0.970185
C     -1.044087    0.644230   -0.934096
C      3.578952    1.297769    0.277401
C     -3.508616    0.274770    0.093247
C     -3.212767    1.480948   -0.448479
C     -1.330456   -0.596753   -0.381521
C      1.054896   -1.459120   -0.701507
C     -2.585986   -0.785480    0.140733
C      1.446248   -2.803688   -1.283774
N     -0.370013   -1.633801   -0.379139
N     -4.169332    2.556853   -0.488586
N     -3.041800   -1.981400    0.752209
O      3.912529    2.525083   -0.284905
O      2.213305   -3.573659   -0.673520
O      0.948972   -3.190762   -2.511460
O     -5.424911    2.383733    0.029872
O     -3.855705    3.636332   -0.991369
O     -2.600109   -3.212750    0.418260
O     -3.917927   -1.849957    1.673214
Na     0.000000    0.000000    0.000000
H      0.680267    0.020426    1.726039
H      2.366781   -0.173851    2.251475
H      1.508445    1.697813   -0.055502
H      2.086475    2.023324    1.569087
H      2.949971   -1.453585    0.277710
H      1.587354   -2.116695    1.224073
H     -1.715030    2.622548   -1.403517
H     -0.076417    0.804013   -1.373115
H      3.701984    0.534405   -0.513288
H      4.272201    1.071238    1.106244
H     -4.511563    0.105789    0.517308
H      1.130786   -0.722992   -1.488076
H     -0.653598   -2.607115   -0.130066
H      4.824664    2.829146   -0.059440
