30

C      4.580290    0.527553   -0.201610
C      3.791814   -0.594538    0.419391
C     -4.665006    0.603927   -0.073024
C     -3.790348    1.397270    0.635346
C     -4.152108   -0.478994   -0.754123
C     -2.434418    1.070604    0.631055
C     -2.812574   -0.796538   -0.754651
C      0.215133    0.780583    0.729610
C      0.548831   -1.852020   -1.586412
C     -1.922968   -0.011662   -0.049720
C     -0.462668   -0.311633   -0.014620
C      1.681186    0.614251    0.838288
O      0.555106   -2.793522   -0.758705
O      2.307821    1.510704    1.459019
O      2.409388   -0.429824    0.321605
O      0.056443   -0.591991   -1.279734
H      5.659643    0.292275   -0.044597
H      4.386865    1.501537    0.250313
H      4.401822    0.579493   -1.310403
H      4.150869   -0.737477    1.457327
H      4.055642   -1.529372   -0.125568
H     -5.730151    0.809327   -0.105929
H     -4.161664    2.254218    1.180101
H     -4.851287   -1.112314   -1.319813
H     -1.816591    1.746220    1.210574
H     -2.402412   -1.641151   -1.284166
H     -0.165323    0.744177    1.792394
H      0.008378    1.764584    0.279090
H      0.953120   -2.071198   -2.570967
H     -0.394834   -1.244487    0.625650
