39

C      4.770094   -1.255188    1.603618
C     -4.209423   -0.413968    1.170778
C      0.806750    0.967300   -2.380499
C      3.560024   -0.740756    0.850392
C     -3.731529    0.415149   -0.003987
C      2.309392   -0.864332    1.689929
C     -2.979924   -0.473554   -0.966267
C      1.085054   -0.368147    0.975073
C      1.188342    1.082866    0.590429
C     -0.048947    1.579623   -0.120293
C     -2.452218    0.240023   -2.159253
C     -0.340854    0.849274   -1.380646
O     -1.539289    1.226377   -1.953847
H      4.886927   -0.633004    2.503093
H      4.554054   -2.305386    1.923376
H      5.666361   -1.190347    0.981691
H     -5.286768   -0.655292    1.072992
H     -3.643398   -1.341098    1.297174
H     -4.073822    0.178391    2.110821
H      0.455939    0.441537   -3.303508
H      1.114354    1.996970   -2.546972
H      1.638766    0.374118   -1.979756
H      3.458690   -1.252141   -0.110972
H      3.758470    0.347315    0.661302
H     -4.653782    0.807373   -0.534905
H     -3.138784    1.287217    0.284048
H      2.219098   -1.890882    2.043691
H      2.478171   -0.202007    2.589584
H     -3.658867   -1.313811   -1.276076
H     -2.166663   -1.004088   -0.388058
H      0.197150   -0.482710    1.622174
H      0.976546   -1.034089    0.068484
H      2.100281    1.290913   -0.013767
H      1.298501    1.656972    1.532966
H      0.137780    2.665051   -0.361230
H     -0.851125    1.589132    0.632837
H     -3.341484    0.730332   -2.658610
H     -2.136921   -0.530949   -2.893625
H     -0.406945   -0.235936   -1.172179
