21

C     -0.718680   -1.278176   -0.823303
C     -2.527341    1.310743    0.188798
C      1.685538   -0.570405    0.516997
C      0.338893   -0.357911    1.164719
C      2.192415    0.592599   -0.270561
C     -0.670136   -0.080712    0.119308
Br     3.920621    0.110698   -0.995828
O     -1.951042    0.124295    0.562334
H     -1.752225   -1.436646   -1.215243
H     -0.078809   -1.111231   -1.714130
H     -0.448398   -2.207391   -0.276313
H     -3.551204    1.337105    0.614949
H     -2.652882    1.298300   -0.921958
H     -1.993243    2.213106    0.501734
H      2.469230   -0.826426    1.268251
H      1.670213   -1.451391   -0.180086
H      0.474206    0.532305    1.847178
H      0.120126   -1.242644    1.789003
H      2.302490    1.517455    0.298706
H      1.528625    0.729107   -1.166389
H     -0.358397    0.797219   -0.474214
