42

C      4.988293    2.192000    0.081370
C     -4.785491    2.562048    0.339069
C      0.266031   -3.744493   -1.351776
C      3.798250    1.397154    0.591561
C     -4.390026    1.111879    0.555773
C     -0.242770   -2.332622   -1.552567
C      2.724594    1.395845   -0.466808
C     -2.978062    0.961708    0.039619
C      1.499884    0.630959   -0.036103
C      1.788356   -0.819011    0.268468
C      0.599330   -1.586084    0.695785
C     -2.468851   -0.458296    0.203908
C     -0.551759   -1.693173   -0.232379
O     -1.191161   -0.486567   -0.290789
H      4.638669    3.204115   -0.165049
H      5.424951    1.646607   -0.782130
H      5.726815    2.221973    0.927134
H     -5.651922    2.799480    0.998490
H     -3.955996    3.249331    0.552116
H     -5.120927    2.703031   -0.704272
H     -0.220184   -4.472861   -2.021381
H      0.015093   -4.059755   -0.306229
H      1.365907   -3.820675   -1.429827
H      4.105565    0.348219    0.809508
H      3.399926    1.848632    1.501784
H     -4.415784    0.809479    1.603677
H     -5.022102    0.422371   -0.025369
H      0.480907   -1.766116   -2.164259
H     -1.156474   -2.415674   -2.177107
H      3.098124    1.017021   -1.442200
H      2.409181    2.451535   -0.604328
H     -2.862237    1.321982   -0.994652
H     -2.329408    1.601596    0.679392
H      1.160978    1.087934    0.934766
H      0.663359    0.786794   -0.742291
H      2.401670   -1.303348   -0.516335
H      2.481855   -0.791513    1.166223
H      0.901190   -2.636057    0.993602
H      0.270612   -1.147004    1.686938
H     -3.147175   -1.213379   -0.200181
H     -2.406363   -0.633256    1.307515
H     -1.312849   -2.391807    0.245904
