31

C      3.881827   -0.597666   -0.033626
C     -0.202307   -1.373243   -1.398447
C      3.128922   -0.185839    1.185994
C      2.475800    1.172052    1.059906
C     -4.441860    0.223761    0.531648
C     -4.056607    0.875183   -0.626197
C     -3.531367   -0.488493    1.258413
C     -2.718442    0.783884   -1.027594
C     -2.206818   -0.562773    0.836351
C      1.495107    1.146541   -0.100077
C     -0.421381    0.006463   -0.761937
C     -1.792639    0.071923   -0.307483
O      0.555825    0.187641    0.164635
H      4.871430   -0.991270    0.279297
H      4.037652    0.231845   -0.760605
H      3.359501   -1.421978   -0.538000
H     -1.122503   -1.568580   -2.002415
H     -0.149493   -2.103133   -0.557555
H      0.722586   -1.409951   -1.988208
H      3.779001   -0.191974    2.082505
H      2.313387   -0.910375    1.392771
H      1.923719    1.344318    2.018275
H      3.286716    1.915599    0.908335
H     -5.493655    0.301917    0.837323
H     -4.792423    1.433991   -1.187691
H     -3.860945   -0.985164    2.155720
H     -2.486342    1.317933   -1.942934
H     -1.516064   -1.147273    1.455594
H      1.105718    2.134422   -0.345751
H      2.090675    0.801104   -0.986331
H     -0.235020    0.731536   -1.601916
