42

C      4.849886    1.500142   -2.161513
C     -4.652575    2.010047   -0.525440
C     -2.069582   -2.239920    2.524841
C      4.508141    1.136389   -0.737760
C     -3.834216    0.828491   -0.049262
C     -0.638280   -1.842199    2.175856
C      3.032769    0.774354   -0.588432
C     -2.943592    0.358371   -1.181350
C      2.823371    0.436580    0.854376
C      1.393237    0.050609    1.184458
C      0.937589   -1.141690    0.421293
C     -2.097103   -0.824424   -0.768620
C     -0.482664   -1.519731    0.731264
O     -1.288205   -0.473195    0.302425
H      5.898532    1.208529   -2.341557
H      4.227701    0.955412   -2.900134
H      4.791025    2.613516   -2.311289
H     -5.202624    1.696228   -1.453103
H     -4.004526    2.861318   -0.767307
H     -5.405534    2.260743    0.249601
H     -2.552082   -2.792701    1.713970
H     -2.108332   -2.864758    3.440081
H     -2.593428   -1.282141    2.784119
H      5.152325    0.311868   -0.406793
H      4.687977    2.049505   -0.118062
H     -4.514467   -0.013403    0.187282
H     -3.220976    1.138622    0.825381
H     -0.305566   -1.003944    2.815139
H     -0.002241   -2.714390    2.429406
H      2.767322   -0.047166   -1.283922
H      2.455923    1.674263   -0.880523
H     -2.299308    1.185258   -1.562136
H     -3.594191    0.067185   -2.032762
H      3.512854   -0.342854    1.223564
H      3.035447    1.357619    1.441961
H      1.422481   -0.204322    2.278985
H      0.732538    0.926162    1.075769
H      1.561512   -2.044626    0.622824
H      1.032811   -0.907715   -0.677768
H     -2.805688   -1.614115   -0.420469
H     -1.492001   -1.134953   -1.620736
H     -0.716260   -2.392966    0.069303
