28

C     -3.081105    1.143583    0.774664
C     -2.460217   -1.718109   -0.051608
C     -2.798219    0.703645   -0.615871
C      1.792585    0.262013    0.765091
C      2.821502   -0.116361   -1.324601
C      3.034446    0.530736    1.317184
C      4.060370    0.150861   -0.777450
C      0.344973   -0.356228   -1.170878
C     -1.909575   -0.502040   -0.719507
C      1.665908   -0.068307   -0.574954
C      4.185524    0.479992    0.558274
Br     5.910859    0.849305    1.308236
O     -0.645113   -0.238182   -0.199033
H     -2.272080    0.938007    1.502490
H     -4.051321    0.718060    1.159250
H     -3.232297    2.243628    0.774805
H     -1.594802   -2.380062    0.208361
H     -2.985049   -1.519826    0.895128
H     -3.095723   -2.261965   -0.770417
H     -2.339504    1.541332   -1.171856
H     -3.768055    0.496937   -1.116991
H      0.884961    0.304848    1.375337
H      2.730662   -0.377157   -2.386959
H      3.117954    0.787891    2.367548
H      4.965837    0.109567   -1.380292
H      0.133541    0.392581   -1.961617
H      0.357875   -1.374784   -1.603659
H     -1.773936   -0.739964   -1.794780
