44

C      1.181661   -3.013487    3.115243
C     -1.532869    3.617015   -1.871342
C     -3.776092   -2.530845    0.873481
C      4.272785    1.355052   -1.374523
C     -1.349907    2.588671   -2.756792
C     -1.345299    3.382932   -0.529247
C     -3.224312   -2.746003   -0.350398
C     -3.237137   -1.568943    1.697667
C      3.512607    2.183874   -0.600026
C      3.905430    0.043291   -1.531429
C     -0.980249    1.334281   -2.287388
C     -0.975145    2.121368   -0.074254
C     -2.139798   -2.001788   -0.744600
C     -2.140336   -0.826010    1.282033
C      2.384031    1.679084    0.011490
C      2.756128   -0.447213   -0.901481
C      0.910032   -1.674825    2.513386
C     -0.787546    1.078060   -0.951706
C     -1.564697   -1.028149    0.044161
C      1.972245    0.373766   -0.113400
C     -0.402311   -0.254767   -0.437758
C      0.758420   -0.199324    0.528273
O      0.578001   -0.685251    3.222473
O      0.995317   -1.412381    1.177158
H      1.592291   -3.664936    2.330806
H      1.989066   -2.937863    3.897484
H      0.310261   -3.435899    3.619031
H     -1.824640    4.599276   -2.263353
H     -4.639281   -3.120492    1.192047
H      5.157070    1.710448   -1.866128
H     -1.491120    2.750347   -3.807119
H     -1.494498    4.206304    0.151081
H     -3.632759   -3.497184   -1.013447
H     -3.696223   -1.424695    2.656032
H      3.804743    3.218448   -0.477908
H      4.511803   -0.613672   -2.147849
H     -0.848702    0.558438   -3.024117
H     -0.851246    2.035468    1.000719
H     -1.734905   -2.209824   -1.729107
H     -1.774655   -0.086711    1.980199
H      1.802728    2.352800    0.621260
H      2.542121   -1.471583   -1.073585
H      0.044225   -0.845825   -1.312049
H      0.462764    0.508751    1.324983
