44

C      1.295850   -3.266133    2.293471
C     -3.574274   -2.890315   -0.857568
C     -1.694315    3.686692    1.046701
C      4.055755    2.196346   -0.479242
C     -2.904130   -2.621716    0.318445
C     -3.245070   -2.218494   -2.015700
C     -1.280911    2.601226    1.812542
C     -1.695938    3.546151   -0.323108
C      3.398864    1.979460    0.705265
C      3.673200    1.519521   -1.605821
C     -1.901434   -1.687961    0.367928
C     -2.246165   -1.298967   -1.932636
C     -0.882476    1.412288    1.203050
C     -1.299837    2.366569   -0.905151
C      2.364888    1.092777    0.770507
C      2.630151    0.621195   -1.553761
C      1.242723   -2.534731    0.994025
C     -1.558989   -1.010292   -0.770019
C     -0.883805    1.271140   -0.161972
C      1.958971    0.399678   -0.344391
C     -0.466770    0.017310   -0.780348
C      0.819126   -0.573284   -0.352372
O      1.561917   -3.119831   -0.071259
O      0.848735   -1.208555    0.902178
H      0.480862   -2.962666    2.974355
H      2.287220   -3.143060    2.791897
H      1.199095   -4.346695    2.060008
H     -4.371633   -3.625122   -0.921781
H     -2.001770    4.606911    1.543368
H      4.872482    2.897708   -0.527601
H     -3.221437   -3.194704    1.195052
H     -3.763695   -2.422668   -2.937215
H     -1.288099    2.733955    2.873864
H     -2.017140    4.390237   -0.912582
H      3.743337    2.541909    1.564658
H      4.154320    1.647685   -2.573806
H     -1.417530   -1.514540    1.310730
H     -1.974834   -0.759017   -2.841539
H     -0.579538    0.637588    1.897658
H     -1.315868    2.296819   -1.989989
H      1.864457    0.923545    1.706734
H      2.298224    0.065340   -2.427618
H     -0.302261    0.273769   -1.891314
H      1.137743   -1.327069   -1.155642
