55

C      4.473172   -3.470560    0.851960
C     -1.135146   -3.833608   -1.707396
C     -2.926214    0.473546    3.380064
C     -1.661069    5.035947    0.444350
C     -0.163834   -3.268924   -0.909581
C     -2.179909   -3.027186   -2.107632
C     -1.584325    0.265033    3.170895
C     -3.780243    0.620427    2.319546
C     -0.794439    4.377282    1.288585
C     -2.060289    4.461896   -0.743615
C     -0.226217   -1.946833   -0.520874
C     -2.220244   -1.716777   -1.708889
C     -1.117154    0.206876    1.882646
C     -3.317864    0.563052    1.026590
C     -0.319774    3.118996    0.933661
C     -1.570637    3.213943   -1.063749
C      3.631658   -1.136813    0.698486
C      3.437352   -2.491271   -1.221961
C      3.043177   -0.103363   -0.004867
C      2.845511   -1.451348   -1.928761
C      3.833055   -2.346644    0.086817
C     -1.247043   -1.127671   -0.902117
C     -1.970690    0.353701    0.816213
C     -0.704638    2.530930   -0.242355
C      2.638571   -0.233894   -1.325812
C     -1.409824    0.278624   -0.554275
C     -0.224432    1.158700   -0.667486
O      2.308313    1.078418   -3.566668
O      2.620942    2.365665   -1.559377
O      0.277052    1.239871   -1.966154
S      1.914973    1.132447   -2.095288
H      5.558898   -3.281553    0.884834
H      4.106412   -3.495145    1.898643
H      4.320787   -4.437072    0.331315
H     -1.088978   -4.883476   -2.018202
H     -3.267343    0.514941    4.411263
H     -2.049259    6.033305    0.705833
H      0.653123   -3.891827   -0.594114
H     -2.935084   -3.483891   -2.733507
H     -0.876797    0.144134    3.984427
H     -4.830659    0.783061    2.534643
H     -0.516211    4.874999    2.205458
H     -2.746873    5.002377   -1.395762
H      0.545363   -1.567385    0.096737
H     -3.080050   -1.135852   -2.064975
H     -0.036200    0.039565    1.747448
H     -3.963091    0.674687    0.170331
H      0.353843    2.631304    1.594932
H     -1.899519    2.785745   -2.001721
H      3.947853   -1.027630    1.738084
H      3.600906   -3.450599   -1.695581
H      2.916062    0.827566    0.547719
H      2.535954   -1.565829   -2.953922
H     -2.234699    0.710141   -1.225979
H      0.575770    0.877975    0.018665
