55

C      7.047133    1.559403   -1.416819
C     -4.564893    1.090843    3.122126
C     -1.626710    2.138791   -3.357236
C     -2.708798   -4.249855   -0.506147
C     -3.476177    0.369808    3.537545
C     -4.541400    1.644522    1.864593
C     -2.488494    1.176144   -2.879262
C     -0.618604    2.578867   -2.527399
C     -2.635672   -3.894961    0.821966
C     -2.058282   -3.462915   -1.446416
C     -2.373402    0.189429    2.734369
C     -3.417056    1.459087    1.049247
C     -2.346566    0.664258   -1.600620
C     -0.491371    2.059895   -1.260269
C     -1.918828   -2.763286    1.207678
C     -1.370344   -2.368279   -1.030491
C      5.472309   -0.324994   -1.013684
C      4.955573    1.763194   -0.044777
C      4.325671   -0.855685   -0.460086
C      3.809410    1.229958    0.507733
C      5.800479    0.998451   -0.809973
C     -2.338143    0.735454    1.480273
C     -1.349475    1.081292   -0.744550
C     -1.262063   -1.959417    0.303449
C      3.458900   -0.091408    0.318647
C     -1.152795    0.542236    0.631815
C     -0.491642   -0.784093    0.691155
O      1.643523   -0.137063    2.302625
O      2.221205   -2.271218    1.313992
O      0.715173   -0.678845   -0.021754
S      2.028767   -0.806517    0.992677
H      6.963846    2.643667   -1.535489
H      7.259644    1.041312   -2.397186
H      7.944540    1.318566   -0.784891
H     -5.446666    1.233574    3.767411
H     -1.741536    2.544139   -4.373982
H     -3.261195   -5.124972   -0.820961
H     -3.530868   -0.057699    4.548716
H     -5.399652    2.214057    1.534749
H     -3.272459    0.845664   -3.548350
H      0.065113    3.339220   -2.899113
H     -3.145079   -4.514286    1.542912
H     -2.145339   -3.783100   -2.475332
H     -1.565429   -0.393436    3.157632
H     -3.498479    1.938958    0.086391
H     -3.057191   -0.097128   -1.236116
H      0.301493    2.417100   -0.630439
H     -1.916392   -2.578594    2.268752
H     -0.871521   -1.784391   -1.789549
H      6.156146   -0.925959   -1.627446
H      5.247633    2.810542    0.096194
H      4.067643   -1.904147   -0.622699
H      3.158440    1.854940    1.108360
H     -0.378194    1.256376    1.101281
H     -0.181930   -0.927497    1.768749
