28

C     -2.690293    1.484715    0.956879
C     -2.262124   -1.229134   -1.684491
C     -2.877274    0.679926   -0.309033
C      2.394101   -1.047456   -0.339273
C      1.984518    0.809583    1.052395
C      3.697633   -0.659327   -0.543579
C      3.291469    1.202448    0.850055
C      0.101264   -0.803417    0.641764
C     -1.970535   -0.518601   -0.372492
C      1.512629   -0.334615    0.453096
C      4.169425    0.488784    0.058386
Br     5.978163    1.048721   -0.210765
O     -0.639050   -0.229902   -0.346629
H     -3.657518    1.695184    1.455294
H     -2.067673    0.951304    1.703569
H     -2.265598    2.494930    0.705897
H     -2.371362   -0.461151   -2.495837
H     -1.408424   -1.873424   -2.000155
H     -3.177184   -1.852568   -1.630675
H     -2.806228    1.315686   -1.224819
H     -3.920517    0.298691   -0.294405
H      2.018166   -1.956591   -0.815116
H      1.291325    1.363185    1.670818
H      4.350682   -1.248219   -1.171373
H      3.669640    2.099471    1.316957
H     -0.249309   -0.614562    1.671143
H      0.129129   -1.908765    0.455612
H     -2.225053   -1.194896    0.446779
