64

C      0.452033   -2.717921   -4.333304
C     -5.068818   -1.838319   -0.845199
C     -1.004828    3.996901   -1.853159
C     -0.976968    1.047956    3.856308
C     -0.738488   -2.076665   -4.100781
C      1.424546   -2.751159   -3.354654
C     -3.982877   -2.576331   -0.452711
C     -4.941269   -0.488926   -1.043651
C     -1.772093    3.722417   -0.757915
C     -0.313941    2.980280   -2.449558
C     -0.135937    1.644839    2.947197
C     -1.926581    0.120358    3.505051
C      5.475421    1.601542    1.651939
C      4.581135    1.955777    0.666319
C     -0.925714   -1.470859   -2.861312
C      1.191620   -2.146255   -2.166024
C     -2.762187   -1.977602   -0.254310
C     -3.697525    0.090282   -0.836584
C     -1.841757    2.457851   -0.277154
C     -0.397992    1.679743   -1.938494
C     -0.279537    1.270887    1.626189
C     -2.048481   -0.235955    2.173231
C      5.201726    0.491306    2.384537
C      3.460653    1.193621    0.455075
C     -0.002681   -1.469376   -1.851679
C     -2.577216   -0.597060   -0.443538
C     -1.155967    1.358879   -0.843800
C     -1.230240    0.340126    1.267029
C      4.046285   -0.307902    2.177949
C      3.159050    0.036505    1.206234
C     -0.113698   -0.881481   -0.521703
C      3.869077   -1.464897    3.020415
C      1.935468   -0.683513    0.885820
C     -1.275006    0.017872   -0.241505
O      2.944985   -2.248119    2.973002
O      4.853613   -1.719306    3.991947
O      1.493417   -1.700697    1.423932
O      1.113151   -0.213411   -0.154082
H      0.659704   -3.204879   -5.267551
H     -6.058163   -2.285167   -1.012358
H     -0.969069    5.002679   -2.210282
H     -0.868887    1.338652    4.902508
H     -1.506216   -2.045357   -4.860637
H      2.372203   -3.252600   -3.518766
H     -4.128237   -3.641177   -0.307062
H     -5.794953    0.125238   -1.357910
H     -2.318077    4.502912   -0.279063
H      0.294358    3.172645   -3.309854
H      0.611653    2.369284    3.191835
H     -2.591485   -0.354789    4.204189
H      6.354695    2.225561    1.795878
H      4.799592    2.844048    0.079674
H     -1.848829   -0.974383   -2.728804
H      1.961637   -2.169316   -1.383638
H     -1.948526   -2.605383    0.053406
H     -3.687710    1.174711   -1.036163
H     -2.434982    2.232822    0.601308
H      0.177508    0.956106   -2.433289
H      0.376377    1.738273    0.887224
H     -2.776331   -0.951446    1.837899
H      5.899442    0.213870    3.153861
H      2.753113    1.461070   -0.313935
H     -0.176535   -1.731199    0.192142
H      4.815340   -2.583566    4.488329
