54

C      2.695530    0.048457   -3.359145
C      3.500110    1.761662    2.847063
C     -1.476847    3.823819   -0.527789
C     -2.544252   -2.363398    3.204695
C     -1.880373   -2.317048   -3.407434
C      3.999778    1.351370    1.629750
C      2.202657    1.481603    3.203142
C     -1.697817    3.235037    0.696682
C     -0.920233    3.060519   -1.499864
C     -3.165023   -1.429152    2.402896
C     -1.204075   -2.588109    2.974673
C     -0.832312   -2.835944   -2.690721
C     -2.450153   -1.142585   -2.975397
C      3.147595    0.653644    0.792117
C      1.401241    0.784270    2.329893
C     -1.354453    1.912250    0.899726
C     -0.585361    1.758850   -1.290916
C     -2.451577   -0.762024    1.419741
C     -0.492387   -1.925194    1.996841
C     -0.369235   -2.188757   -1.567621
C     -1.964330   -0.511025   -1.840922
C      2.308272   -0.530693   -2.027622
C      1.851897    0.366704    1.132164
C     -0.783451    1.106754   -0.072918
C     -1.115720   -1.000185    1.206268
C     -0.905551   -1.017748   -1.103161
C      1.076386   -0.397740    0.133693
C     -0.391092   -0.308365    0.139406
O      2.793257   -1.651166   -1.773835
O      1.496048    0.098057   -1.153625
H      2.566288    1.147726   -3.385900
H      2.037871   -0.405957   -4.120465
H      3.768421   -0.190091   -3.537487
H      4.161673    2.318604    3.528671
H     -1.730028    4.860565   -0.733991
H     -3.094342   -2.891465    3.977597
H     -2.249610   -2.817009   -4.288954
H      5.028681    1.562917    1.325290
H      1.820112    1.814755    4.174288
H     -2.142076    3.843545    1.471715
H     -0.734912    3.494418   -2.470204
H     -4.210939   -1.249405    2.577574
H     -0.724449   -3.337653    3.624009
H     -0.375930   -3.746873   -3.008681
H     -3.294841   -0.696931   -3.527461
H      3.594346    0.356821   -0.156684
H      0.397333    0.600372    2.695328
H     -1.562580    1.521426    1.866888
H     -0.161297    1.221517   -2.127207
H     -3.029904   -0.051464    0.842536
H      0.551656   -2.189885    1.915800
H      0.445324   -2.613974   -0.992290
H     -2.473220    0.385886   -1.562917
H      1.523893   -1.411705    0.194765
