33

C     -1.481559   -0.934605   -1.867324
C     -1.941542   -1.406552    1.002502
C      4.047825    0.498376    1.328197
C      3.161590    1.514797    1.111711
C      3.858689   -0.702910    0.690102
C      2.092168    1.315027    0.255778
C      2.790630   -0.887383   -0.157801
C     -1.502556    0.915895    0.647746
C     -2.793197    1.301234   -0.051172
C      0.737843   -0.081433   -1.286312
C     -0.447047   -0.777440   -0.762285
C      1.865071    0.143064   -0.396543
N     -1.068992   -0.412993    0.423945
O     -3.876798    0.537371    0.313786
H     -1.337102   -1.886328   -2.450143
H     -2.508363   -1.006187   -1.479436
H     -1.443335   -0.077657   -2.576094
H     -1.398415   -2.389058    0.917475
H     -2.088544   -1.221000    2.071139
H     -2.874533   -1.551897    0.426585
H      4.895925    0.664170    2.009579
H      3.289644    2.473860    1.604499
H      4.572174   -1.490551    0.875404
H      1.439656    2.189620    0.127459
H      2.685615   -1.848168   -0.633504
H     -1.710144    1.045925    1.745601
H     -0.763714    1.627960    0.282900
H     -2.709801    1.354546   -1.142633
H     -2.980727    2.367094    0.288680
H      0.460120    0.861993   -1.866574
H      1.136906   -0.734593   -2.131354
H     -0.093023   -1.870552   -0.598335
H     -4.014464    0.468378    1.276421
