125

C    -13.702711    3.637996    0.849815
C     15.417411    4.884950   -0.045348
C    -15.020102    2.948141    0.709898
C     16.033569    3.592439    0.394481
C    -14.998877    1.545547    1.274622
C     14.914044    2.567309    0.568045
C    -13.916639    0.755301    0.485879
C     14.190256    2.370243   -0.732571
C    -13.848010   -0.644651    0.992975
C     13.083957    1.356713   -0.635388
C    -12.928820   -1.591188    0.370305
C     12.071602    1.819165    0.380690
C    -11.480797   -1.434798    0.353953
C     10.941379    0.802095    0.498053
C    -10.827645   -0.282911   -0.287680
C     10.222111    0.591136   -0.792285
C     -9.320934   -0.510442   -0.159058
C      9.132574   -0.402486   -0.632789
C     -8.559766   -0.593474   -1.217914
C      8.904510   -0.947897    0.535302
C     -7.061120   -0.819897   -1.166070
C      7.874229   -1.930450    0.842104
C     -6.439635    0.355311   -1.817725
C      6.940300   -2.285036   -0.235745
C     -4.972885    0.422288   -1.925827
C      6.030866   -1.167202   -0.649041
C     -4.237002   -0.563111   -2.730702
C      5.175791   -0.772957    0.543041
C     -4.313078   -1.996141   -2.430696
C      4.177593    0.323326    0.211632
C     -3.948425   -2.499677   -1.097140
C      3.230704   -0.136992   -0.854227
C     -2.583021   -2.330253   -0.583614
C      2.184077    0.848137   -1.247243
C     -2.007292    1.041369    0.969541
C     -0.413307    0.379954    2.691198
C      0.528449   -4.218792    1.336018
C     -0.558092    1.075645    1.382067
C     -2.046559   -0.985140   -0.402168
C      1.300167    1.324925   -0.185311
C      0.043422   -1.932569    2.021229
C      0.020341   -5.618786    1.444802
Cl    -0.053438   -6.131119    3.150201
Cl     1.157839   -6.736669    0.628979
Cl    -1.578354   -5.803815    0.728777
O     -1.206544   -0.540175   -1.250839
O      1.476908    2.517215    0.235211
O      1.076970   -1.618627    1.396188
O     -2.448893   -0.230534    0.669127
O     -0.675682   -0.969791    2.650649
O     -0.317742   -3.294786    2.036027
O      0.286332    0.578413    0.391454
H    -13.908960    4.744305    0.847205
H    -13.162362    3.432013    1.782713
H    -13.015907    3.472060   -0.009925
H     14.410561    5.055511    0.411492
H     15.299259    4.848146   -1.139229
H     16.035726    5.767627    0.209373
H    -15.805781    3.543970    1.183595
H    -15.201386    2.824400   -0.395980
H     16.725336    3.248583   -0.406397
H     16.564094    3.762664    1.351375
H    -15.969718    1.055238    1.223315
H    -14.600243    1.618305    2.304485
H     15.293581    1.601762    0.921947
H     14.194156    2.951268    1.335102
H    -13.014627    1.370706    0.647413
H    -14.279508    0.754705   -0.560814
H     14.909456    2.045319   -1.523014
H     13.706403    3.343858   -1.024826
H    -13.804500   -0.662568    2.133472
H    -14.898694   -1.065229    0.825464
H     13.525785    0.376236   -0.365137
H     12.619752    1.226330   -1.645527
H    -13.351700   -1.805058   -0.674753
H    -13.138045   -2.607242    0.869657
H     11.632446    2.784376    0.130926
H     12.563718    1.809721    1.384890
H    -11.056166   -2.364085   -0.161161
H    -11.039447   -1.570302    1.404971
H     11.384309   -0.137837    0.893115
H     10.259344    1.204656    1.265284
H    -11.079155   -0.286511   -1.381716
H    -10.958011    0.704337    0.147285
H      9.790013    1.555159   -1.152195
H     10.875751    0.208713   -1.594448
H     -8.902648   -0.600024    0.824707
H      8.587214   -0.665006   -1.506997
H     -9.037897   -0.493087   -2.188315
H      9.539759   -0.657144    1.412564
H     -6.737912   -0.812686   -0.078764
H     -6.806113   -1.808642   -1.525168
H      8.337645   -2.883773    1.270201
H      7.316560   -1.539619    1.745482
H     -6.812644    1.304991   -1.312494
H     -6.845339    0.499737   -2.874524
H      6.314836   -3.160328    0.148543
H      7.450805   -2.745027   -1.127468
H     -4.544252    0.567517   -0.894798
H     -4.746650    1.438396   -2.403347
H      5.384106   -1.468808   -1.512146
H      6.532621   -0.248465   -0.981560
H     -4.705511   -0.470866   -3.795273
H     -3.191472   -0.246479   -2.953624
H      5.858824   -0.334077    1.315071
H      4.703502   -1.655891    0.980418
H     -3.474286   -2.454944   -3.120310
H     -5.193820   -2.545198   -2.894443
H      4.752238    1.215765   -0.079061
H      3.634393    0.522224    1.154890
H     -4.672226   -2.188787   -0.291107
H     -4.130503   -3.630241   -1.131477
H      3.788234   -0.368506   -1.810555
H      2.772746   -1.100924   -0.580883
H     -2.567472   -2.803408    0.453647
H     -1.839592   -2.963454   -1.139873
H      2.601759    1.686107   -1.864491
H      1.516707    0.307505   -1.991900
H     -2.141485    1.732078    0.078499
H     -2.596412    1.536677    1.778403
H      0.630158    0.502994    3.107771
H     -1.133192    0.866464    3.433472
H      0.648342   -3.933176    0.274623
H      1.529309   -4.145321    1.821918
H     -0.275838    2.185038    1.568172
