33

C     -0.669085   -1.698367   -1.141575
C     -1.606386    0.346588    1.810748
C      3.778327    0.960605   -0.734424
C      2.979808    1.509936    0.220946
C      3.560349   -0.328573   -1.151575
C      1.947062    0.749061    0.762823
C      2.529734   -1.075405   -0.604677
C     -2.545688    0.128849   -0.398561
C     -3.110020    1.498366   -0.591039
C      0.619053   -1.300192    0.960159
C     -0.708672   -1.208184    0.298054
C      1.709725   -0.543730    0.360866
N     -1.387971    0.056338    0.433586
S     -1.957772    2.655415   -1.348929
H     -0.432545   -0.918428   -1.859096
H      0.075362   -2.547307   -1.144077
H     -1.620912   -2.189154   -1.440739
H     -2.632246    0.690812    2.045776
H     -1.401227   -0.506236    2.489440
H     -0.942529    1.177618    2.121950
H      4.597217    1.535887   -1.175810
H      3.144774    2.541467    0.561710
H      4.211125   -0.743724   -1.914371
H      1.359381    1.255690    1.515482
H      2.419880   -2.086494   -0.984638
H     -2.311873   -0.279436   -1.402254
H     -3.352383   -0.493536    0.065871
H     -3.975018    1.402082   -1.288953
H     -3.555306    1.914494    0.357219
H      0.509809   -0.990075    2.033040
H      0.911518   -2.373950    0.967431
H     -1.372721   -1.955796    0.828239
H     -0.770770    2.815382   -0.652627
