33

C     -0.104404   -1.799337    0.409318
C     -2.522389   -1.320022   -1.024132
C      4.649358   -0.082911    0.098701
C      3.965863    0.595816   -0.873951
C      3.934553   -0.561547    1.180430
C      2.619314    0.794634   -0.780557
C      2.559137   -0.354707    1.269647
C     -2.341244    0.987394   -0.380771
C     -3.658440    0.967832    0.407939
C      0.399188    0.579625    0.337851
C     -0.395497   -0.482987   -0.315647
C      1.868657    0.327939    0.291616
N     -1.795322   -0.315473   -0.320350
S     -4.353603    2.643597    0.326627
H      0.802030   -2.289438    0.021171
H     -0.087321   -1.665827    1.506148
H     -0.944769   -2.528543    0.218138
H     -1.818228   -1.989099   -1.548231
H     -3.109216   -1.974370   -0.319856
H     -3.271111   -0.884664   -1.721765
H      5.718543   -0.257344    0.052791
H      4.539794    0.975003   -1.732745
H      4.483543   -1.099383    1.951222
H      2.101930    1.334078   -1.562327
H      2.031896   -0.733941    2.116742
H     -2.642020    1.191168   -1.444948
H     -1.725621    1.819917   -0.071498
H     -4.367822    0.240119   -0.013052
H     -3.479229    0.659171    1.467995
H      0.278268    1.589682   -0.122384
H      0.143727    0.713999    1.414911
H     -0.013186   -0.619963   -1.350338
H     -3.466378    3.539583   -0.283421
