42

C      6.205417    1.657651   -0.463729
C     -6.261503    0.526569   -0.631330
C     -5.599583   -0.636265   -0.912306
C     -2.198160    2.438048    0.933594
C     -5.599711    1.621641   -0.127170
C     -3.534110    2.547653    0.653422
C     -4.232059   -0.753401   -0.696430
C     -1.507434    1.289421    0.663640
C      4.981608   -0.467672   -0.984405
C      4.416579    0.691778    1.002369
C      4.020896   -1.428226   -0.686181
C      3.449100   -0.275007    1.305158
C     -0.274524   -1.403017    0.594440
C      5.193514    0.608859   -0.144281
C     -4.230347    1.500410    0.089377
C      3.248481   -1.336343    0.459643
C     -3.533492    0.328815   -0.189252
C     -2.177068    0.187905    0.082175
C     -1.379825   -0.969342   -0.357647
O     -1.902046   -1.962026   -1.081571
O      2.491772   -3.829040    0.091525
O      1.719835   -2.695205    2.187745
O      0.696329   -2.011415   -0.159635
S      2.009320   -2.568862    0.740042
H      6.050575    2.516430    0.219327
H      7.232867    1.308941   -0.441186
H      6.038241    2.067760   -1.491107
H     -7.352777    0.633146   -0.782497
H     -6.141044   -1.473903   -1.300053
H     -1.674449    3.286772    1.374395
H     -6.105050    2.553278    0.110724
H     -4.076342    3.470564    0.868755
H     -3.754009   -1.679619   -0.915053
H     -0.464064    1.181971    0.860985
H      5.561232   -0.570067   -1.880969
H      4.578217    1.529977    1.669236
H      3.850174   -2.271403   -1.328936
H      2.850734   -0.223447    2.187922
H      0.084135   -0.581643    1.211518
H     -0.672627   -2.169628    1.315190
H     -0.699259   -0.400596   -1.193037
H     -1.309542   -2.241463   -1.868687
