32

C     -0.360809   -2.277543   -0.368772
C     -4.046898    0.811114    0.798492
C      4.491515    1.036630    0.839318
C     -4.105869   -0.428765    0.186781
C     -2.998586    1.674688    0.573404
C      4.286463    0.240974   -0.276350
C      3.451207    1.407791    1.655301
C     -3.076614   -0.793069   -0.669534
C     -1.970192    1.328372   -0.272925
C      2.996336   -0.204027   -0.594517
C      2.197522    0.976852    1.348312
C     -0.934791   -0.294636   -1.791898
C      0.176139   -1.005973   -1.039091
C     -2.028271    0.091995   -0.883382
C      1.963806    0.171000    0.225121
O      0.678024   -0.208511    0.002041
H     -0.921165   -1.931478    0.519871
H      0.532178   -2.820026    0.005162
H     -0.962883   -2.876900   -1.065073
H     -4.843067    1.127874    1.479209
H      5.481268    1.371431    1.073720
H     -4.937545   -1.095415    0.375032
H     -2.957974    2.651375    1.059048
H      5.125393   -0.026091   -0.886994
H      3.670793    2.027373    2.508490
H     -3.089808   -1.756505   -1.165957
H     -1.130180    1.998955   -0.464502
H      2.836782   -0.825938   -1.466752
H      1.359591    1.249234    1.966513
H     -0.490942    0.626626   -2.212417
H     -1.319888   -0.883740   -2.621767
H      0.928464   -1.363665   -1.760181
