25

C      3.723487   -0.741931    0.781983
C     -3.053400   -1.467032    0.215310
C     -0.553320    2.507276   -0.626008
C      2.372924   -0.558195    0.168307
C     -2.081719   -0.393060   -0.146570
C      1.537925    0.300081    0.732244
C     -0.745732   -0.648567    0.522104
C      0.191978    0.477017    0.112833
O     -0.333556    1.706435    0.477688
H      4.416313    0.070564    0.546237
H      4.183093   -1.699526    0.453733
H      3.584316   -0.764448    1.887638
H     -3.865482   -1.069980    0.872627
H     -2.539086   -2.244052    0.803022
H     -3.511054   -1.940745   -0.701175
H     -1.259912    2.075510   -1.358256
H      0.406659    2.763142   -1.147312
H     -0.952767    3.490711   -0.273013
H      2.069350   -1.108479   -0.719016
H     -2.505675    0.593553    0.190004
H     -1.980635   -0.363707   -1.235975
H      1.816722    0.856620    1.611981
H     -0.369206   -1.605014    0.126297
H     -0.846283   -0.707061    1.608488
H      0.295058    0.470886   -0.990066
