31

C     -4.560057    0.123021   -0.288674
C     -0.390151   -1.641775    0.531644
C     -3.691356    1.357522   -0.215838
C      4.585635   -0.302689    0.903721
C      4.013283   -1.357624    0.219324
C      3.896057    0.890813    1.021244
C      2.765099   -1.249029   -0.352252
C      2.655931    0.962420    0.439485
C     -2.330332    1.053375    0.374932
C      0.726991    0.146650   -0.818553
C     -0.399792   -0.201445    0.109046
C      2.054263   -0.073980   -0.252223
O     -1.635489    0.122356   -0.363306
H     -4.334261   -0.604377    0.492619
H     -4.467921   -0.284824   -1.316276
H     -5.615979    0.439989   -0.164752
H      0.340265   -1.747231    1.363633
H     -1.388653   -1.887344    0.969996
H     -0.125514   -2.333461   -0.290498
H     -3.583511    1.837947   -1.219597
H     -4.164993    2.115839    0.444581
H      5.575483   -0.425088    1.343132
H      4.563051   -2.291657    0.132305
H      4.354161    1.711038    1.559792
H      2.297960   -2.055727   -0.890095
H      2.135413    1.925814    0.552093
H     -1.816340    2.017118    0.497546
H     -2.517228    0.612291    1.378195
H      0.661063   -0.492552   -1.748049
H      0.637938    1.222130   -1.073864
H     -0.241015    0.410483    1.045643
