68

C      8.199591    1.038697    0.695765
C     -7.687887   -1.100615    0.839560
C     -8.575017    2.407204   -2.140672
C      8.844398    0.527437   -0.541809
C      7.891131    0.155386   -1.605207
C      6.890294   -0.886843   -1.364082
C      5.817073   -0.680578   -0.371837
C      4.864098    0.450692   -0.708092
C      3.852375    0.539136    0.411014
C      3.050640   -0.717398    0.598309
C      2.075303   -0.477394    1.751897
C      1.261906   -1.707210    1.965525
C      0.448218   -2.136825    0.792766
C     -0.513477   -1.014886    0.443975
C     -1.378116   -1.346493   -0.721022
C     -2.294162   -0.196845   -1.030129
C     -3.163225    0.073263    0.169976
C     -4.072443    1.241404   -0.236403
C     -4.996737    1.614278    0.886670
C     -5.907187    0.516211    1.328814
C     -6.819289    0.014789    0.253775
C     -7.683740    1.321698   -1.658831
O     -6.988310    0.683040   -2.460199
O     -7.623600    1.017948   -0.323619
H      8.103240    0.249199    1.487747
H      7.236135    1.517556    0.486381
H      8.855392    1.864919    1.121628
H     -8.215820   -0.777240    1.736783
H     -6.964129   -1.895711    1.156764
H     -8.312264   -1.531162    0.053451
H     -8.733197    3.136830   -1.317837
H     -9.564546    1.984015   -2.429042
H     -8.145810    2.967125   -2.992350
H      9.560282   -0.300634   -0.285609
H      9.560743    1.344569   -0.893277
H      7.370711    1.057404   -2.039486
H      8.519350   -0.200120   -2.490091
H      6.392638   -1.127734   -2.341079
H      7.397733   -1.868627   -1.072743
H      6.086761   -0.578671    0.672383
H      5.160417   -1.612338   -0.439870
H      5.353836    1.416303   -0.826366
H      4.276400    0.187058   -1.636908
H      3.176575    1.405358    0.279306
H      4.380562    0.729545    1.385718
H      3.662650   -1.576026    0.925561
H      2.454706   -0.892842   -0.301816
H      1.525001    0.433712    1.534313
H      2.678616   -0.314012    2.677570
H      1.957423   -2.517922    2.289380
H      0.565508   -1.558070    2.823462
H     -0.104741   -3.058764    1.063067
H      1.098153   -2.401502   -0.060180
H      0.054330   -0.110354    0.236137
H     -1.179471   -0.935994    1.352313
H     -1.980582   -2.252357   -0.445959
H     -0.809162   -1.595203   -1.640893
H     -2.886700   -0.356420   -1.951428
H     -1.632520    0.710839   -1.134380
H     -3.794587   -0.799681    0.424369
H     -2.592982    0.427430    1.041826
H     -4.600560    0.901168   -1.137622
H     -3.404873    2.079362   -0.495256
H     -4.381585    1.898472    1.787983
H     -5.574975    2.519680    0.624825
H     -5.314624   -0.344853    1.691794
H     -6.478959    0.906268    2.209004
H     -6.246910   -0.466670   -0.559461
