25

C     -3.264445   -0.732150    0.136489
C      3.916970    0.720084   -0.420470
C     -0.124719    1.405222   -0.210256
C     -2.362787    0.466632    0.018322
C      3.219232   -0.113666    0.320133
C     -0.379496   -0.739891    0.982906
C      1.066149   -1.075409    0.681076
C     -0.911458    0.120010   -0.099718
O      1.880986    0.077180    0.592281
H     -4.286277   -0.396721   -0.149774
H     -3.367154   -1.068258    1.208488
H     -3.000575   -1.560761   -0.529826
H      3.468470    1.605919   -0.856520
H      4.965308    0.570036   -0.633328
H      0.685667    1.336549   -0.969386
H     -0.800765    2.222517   -0.599551
H      0.261794    1.749232    0.782934
H     -2.703581    1.042433   -0.865879
H     -2.550477    1.109120    0.903449
H      3.716196   -0.974127    0.725615
H     -0.914389   -1.701439    1.067985
H     -0.430276   -0.270150    1.994349
H      1.514170   -1.692824    1.512129
H      1.174586   -1.682841   -0.225555
H     -0.773125   -0.416697   -1.064489
