46

C      4.270733    1.775639    1.611360
C     -3.629533   -1.946906   -0.913566
C      5.408366    1.139423    0.876416
C      5.119779    0.583881   -0.455537
C      4.177806   -0.536503   -0.560440
C      2.790735   -0.277583   -0.094858
C      1.938383   -1.535257   -0.316013
C     -4.982415    2.779019   -0.800414
C     -3.597211    2.846417   -0.686225
C     -5.637624    1.639159   -0.380388
C      0.513729   -1.292022    0.153829
C     -2.899975    1.788540   -0.161634
C     -4.928345    0.590184    0.141641
C     -0.318413   -2.532285   -0.066573
C     -2.782288   -0.449262    0.808009
C     -2.350304   -1.435825   -0.286232
C     -3.562163    0.673520    0.247044
O     -1.615441   -2.408769    0.325886
H      3.928427    1.177022    2.479119
H      4.652745    2.740204    2.120968
H      3.431824    2.056161    0.961587
H     -4.089168   -1.092593   -1.452001
H     -3.407317   -2.709635   -1.696976
H     -4.344439   -2.295861   -0.164172
H      6.224925    1.920352    0.766862
H      5.875370    0.356356    1.535022
H      6.102138    0.235978   -0.932964
H      4.808155    1.410729   -1.175800
H      4.597118   -1.418892   -0.000726
H      4.125608   -0.898594   -1.633262
H      2.326347    0.598998   -0.523743
H      2.794082   -0.177208    1.019164
H      2.339475   -2.386579    0.260185
H      1.898205   -1.715134   -1.398650
H     -5.518311    3.613897   -1.212941
H     -3.124936    3.767419   -1.031505
H     -6.715308    1.569361   -0.461795
H      0.572110   -0.987779    1.198580
H      0.100077   -0.496744   -0.499527
H     -1.829582    1.858434   -0.081016
H     -5.496123   -0.284166    0.457126
H      0.147516   -3.329642    0.581441
H     -0.222001   -2.919312   -1.101318
H     -3.400462   -1.029912    1.514257
H     -1.858247   -0.125047    1.305941
H     -1.834051   -0.839182   -1.040277
