49

C      7.213777    0.000955   -0.171988
C     -3.218661    2.267966   -0.339027
C      6.208644    0.105800    0.915009
C      4.859333   -0.481373    0.564578
C      4.217557    0.160722   -0.607608
C      2.894447   -0.500887   -0.901780
C      1.990321   -0.357286    0.283992
C      0.655347   -1.010558    0.004611
C     -6.934462   -1.020560    0.255367
C     -5.824969   -1.796119   -0.060657
C     -6.688014    0.190499    0.857645
C      0.013808   -0.351878   -1.181324
C     -4.530229   -1.371468    0.216964
C     -5.407798    0.616308    1.135030
C     -0.220928    1.105552   -0.981906
C     -2.898275    0.268616    1.104039
C     -2.360030    1.024549   -0.064170
C     -4.298212   -0.156086    0.820554
O     -1.059577    1.459916    0.040536
H      7.712141   -0.984694   -0.207398
H      6.841990    0.228457   -1.176348
H      8.023430    0.756821    0.033916
H     -2.781275    2.733935   -1.242357
H     -3.278367    2.924019    0.529401
H     -4.219346    1.908641   -0.595288
H      6.580514   -0.487681    1.793948
H      6.073914    1.136943    1.300114
H      4.876822   -1.572568    0.428558
H      4.217251   -0.279408    1.474816
H      3.972210    1.248100   -0.431013
H      4.840034    0.050727   -1.527485
H      2.448917   -0.046037   -1.818638
H      3.105391   -1.588148   -1.126755
H      2.382780   -0.902432    1.180080
H      1.919152    0.686779    0.587057
H     -0.017876   -0.928771    0.865265
H      0.784653   -2.087502   -0.268059
H     -7.921233   -1.394632    0.019268
H     -5.974837   -2.757134   -0.536088
H     -7.525694    0.812462    1.113957
H      0.562957   -0.495908   -2.128689
H     -0.952470   -0.913605   -1.335126
H     -3.663583   -1.978363   -0.030427
H     -5.211286    1.563052    1.606073
H      0.765111    1.591677   -0.776856
H     -0.539805    1.585395   -1.956391
H     -2.869182    0.832990    2.052305
H     -2.301934   -0.648083    1.268333
H     -2.462458    0.419599   -0.986038
