46

C      7.551042    1.300035   -0.210467
C     -2.942151   -1.587536    1.846146
C      6.075511    1.485176   -0.035439
C      5.361560    0.204342   -0.470682
C      3.876644    0.459491   -0.268559
C      3.042525   -0.713604   -0.654829
C      1.589319   -0.395785   -0.447929
C     -7.202713    0.380431   -0.226493
C     -6.229554    1.326462   -0.464349
C     -6.820761   -0.933377   -0.078611
C      1.242292   -0.059561    0.984216
C     -4.884724    0.957086   -0.553010
C     -5.489037   -1.281767   -0.168898
C     -0.251536    0.235453    1.118122
C     -3.061737   -0.718319   -0.505027
C     -2.359098   -0.662278    0.830892
C     -4.490800   -0.358227   -0.406173
O     -1.005240   -0.868041    0.732019
H      7.714434    0.530971   -1.003934
H      7.955102    0.903728    0.750656
H      8.023094    2.269932   -0.455478
H     -2.198267   -1.880526    2.616059
H     -3.253029   -2.536307    1.352306
H     -3.793303   -1.131505    2.425158
H      5.657260    2.361648   -0.533173
H      5.830014    1.594987    1.054820
H      5.711996   -0.587393    0.222044
H      5.614169   -0.090700   -1.493663
H      3.539711    1.344543   -0.833697
H      3.761338    0.689349    0.809811
H      3.349320   -1.655273   -0.146297
H      3.155954   -0.915691   -1.759566
H      0.945118   -1.211175   -0.847659
H      1.369251    0.481805   -1.116750
H     -8.256738    0.653232   -0.154618
H     -6.551026    2.353733   -0.577571
H     -7.582291   -1.689949    0.109862
H      1.526070   -0.835830    1.691351
H      1.829454    0.862156    1.248020
H     -4.193439    1.762946   -0.741119
H     -5.219639   -2.301763   -0.051210
H     -0.434927    0.398345    2.200574
H     -0.503826    1.155875    0.591291
H     -2.568378    0.027259   -1.162784
H     -2.915809   -1.710897   -0.997912
H     -2.513159    0.386518    1.213448
