49

C      6.801603   -1.115230   -0.352126
C     -2.785689   -1.454470   -0.581878
C      6.433477    0.349764   -0.429660
C      5.162779    0.485114   -1.247273
C      4.041461   -0.290745   -0.587657
C      3.746632    0.193962    0.795293
C      2.633814   -0.611068    1.387755
C      1.346818   -0.527712    0.597713
C     -7.539725    0.291975   -0.868476
C     -6.760047    1.410351   -1.086956
C     -7.030959   -0.750693   -0.136735
C      0.853735    0.917285    0.518296
C     -5.477426    1.504166   -0.585122
C     -5.749985   -0.668976    0.370375
C     -0.418474    0.901887   -0.278231
C     -3.599325    0.538747    0.693779
C     -2.552709    0.002591   -0.266861
C     -4.967823    0.434855    0.160119
O     -1.326943    0.089508    0.389452
H      6.525450   -1.673219   -1.259019
H      7.853519   -1.292538   -0.117787
H      6.191825   -1.538648    0.492470
H     -3.087189   -1.941335    0.371810
H     -3.515857   -1.608081   -1.398575
H     -1.853592   -1.966005   -0.897925
H      7.249867    0.866035   -1.003967
H      6.296702    0.799549    0.552162
H      5.390960    0.056154   -2.244195
H      4.890293    1.539264   -1.414001
H      3.128766   -0.088226   -1.215027
H      4.294622   -1.360421   -0.543106
H      3.488809    1.279869    0.805521
H      4.622075    0.086075    1.468328
H      2.418213   -0.238843    2.407387
H      2.958851   -1.669074    1.446491
H      0.610769   -1.166589    1.126678
H      1.429185   -0.893781   -0.428359
H     -8.546984    0.260305   -1.283341
H     -7.171939    2.228013   -1.666339
H     -7.602785   -1.631291    0.053269
H      1.603688    1.577866    0.086292
H      0.620540    1.259085    1.564929
H     -4.865988    2.369878   -0.750845
H     -5.374614   -1.486283    0.934077
H     -0.809705    1.900027   -0.518735
H     -0.199505    0.385297   -1.251341
H     -3.477089    0.012742    1.663936
H     -3.395410    1.612005    0.883562
H     -2.484693    0.620861   -1.177035
