19

C      3.079690   -0.067021    0.300954
C     -1.098078   -1.463426    0.309388
C     -2.375429    1.503796   -0.423948
C      1.687123   -0.528800   -0.027321
C      0.669344    0.279014    0.158592
C     -0.739881   -0.069617   -0.129483
O     -1.606691    0.807271    0.511977
H      3.828288   -0.810642   -0.009837
H      3.251553    0.892856   -0.256078
H      3.108880    0.176323    1.369441
H     -1.808367   -1.461162    1.148134
H     -1.585266   -2.013977   -0.521664
H     -0.214303   -2.054404    0.620287
H     -3.055359    2.193584    0.116221
H     -1.684187    2.099014   -1.078377
H     -2.956212    0.765587   -0.988079
H      1.502344   -1.523499   -0.417928
H      0.874363    1.270177    0.550169
H     -0.877812    0.004928   -1.232446
