19

C      2.911586   -0.738990    0.622000
C     -0.787864    1.809407   -0.753960
C     -2.506518   -0.889188    0.282431
C      1.589750   -0.690958   -0.067979
C      0.697579    0.204908    0.265263
C     -0.650582    0.328537   -0.369417
O     -1.594819    0.091916    0.593600
H      2.802240   -0.506510    1.694283
H      3.327943   -1.750328    0.479417
H      3.592491   -0.028341    0.103689
H     -0.460412    2.383441    0.138830
H     -1.851318    1.998799   -0.998328
H     -0.148790    2.055742   -1.610257
H     -3.096110   -0.674968   -0.630700
H     -2.086606   -1.905136    0.215884
H     -3.257974   -0.908589    1.118175
H      1.321467   -1.392193   -0.865856
H      0.940752    0.910277    1.053128
H     -0.742813   -0.297828   -1.270202
