19

C     -2.645246    0.578720    0.861304
C      1.281356   -1.597805   -0.678060
C      1.650612    1.348701    0.710391
C     -1.788152    0.545782   -0.129612
C     -0.922911   -0.603327   -0.414246
C      0.548540   -0.290803   -0.357370
O      0.990105    0.132590    0.863378
H     -3.255631    1.441109    1.028895
H     -2.736598   -0.268919    1.512851
H      1.732246   -2.036699    0.231662
H      2.078161   -1.427721   -1.433474
H      0.599721   -2.351472   -1.112552
H      1.017774    2.143244    0.291785
H      2.083118    1.724887    1.662195
H      2.537329    1.241309    0.019313
H     -1.718750    1.415725   -0.769518
H     -1.136286   -1.435223    0.287987
H     -1.135412   -0.980289   -1.438397
H      0.820024    0.420191   -1.136532
