26

C     -2.593081   -1.644456   -0.666635
C     -3.566797    1.307868    0.607858
C      4.317752    0.274053    0.151478
C      3.537436    0.528447   -0.942684
C      3.711789   -0.139210    1.319251
C      2.149048    0.370384   -0.872411
C      2.342874   -0.289052    1.368693
C     -0.764064    0.005649   -0.615627
C      0.083230   -0.208960    0.368875
C     -2.232118   -0.182537   -0.471762
C      1.521073   -0.036746    0.267937
O     -2.633398    0.289748    0.759370
H     -2.813555   -2.154635    0.286928
H     -3.489300   -1.755746   -1.314862
H     -1.742473   -2.113761   -1.219528
H     -3.911504    1.710816    1.562327
H     -4.404366    0.884890   -0.003233
H     -3.117716    2.109737   -0.042714
H      5.398430    0.397156    0.096583
H      4.000007    0.849626   -1.852988
H      4.311734   -0.345890    2.197072
H      1.554229    0.581279   -1.762568
H      1.858868   -0.610979    2.274467
H     -0.389581    0.330220   -1.565783
H     -0.359439   -0.542460    1.326318
H     -2.769078    0.384560   -1.256363
