60

C      6.745597   -0.019432   -0.989118
C      1.342517   -1.903979    0.939344
C      5.287907   -0.173116   -0.579437
C      4.528612    1.068014   -0.906435
C      3.077201    0.934975   -0.514957
C     -5.142725   -0.498663    2.610719
C     -2.345189   -3.003275   -3.016290
C     -1.275728    3.866497   -0.846784
C      2.866559    0.688572    0.949815
C     -5.166405    0.131221    1.368857
C     -3.961466   -1.062230    3.079611
C     -1.781015   -3.442146   -1.841662
C     -2.654403   -1.668122   -3.124384
C     -1.871451    3.459939    0.322429
C     -0.784576    2.885710   -1.679858
C      1.420298    0.565263    1.326412
C     -4.042872    0.216010    0.577938
C     -2.862596   -0.954679    2.256918
C     -1.532056   -2.551799   -0.793763
C     -2.397300   -0.792671   -2.063563
C     -1.953900    2.120230    0.611527
C     -0.864846    1.543925   -1.394273
C      0.705645   -0.574065    0.621268
C     -2.864973   -0.336500    1.026520
C     -1.833735   -1.227767   -0.891155
C     -1.452061    1.130345   -0.241308
C     -1.587112   -0.284486    0.206724
O     -0.577558   -0.582869    1.072717
H      7.235970    0.806338   -0.469811
H      6.816073    0.170653   -2.089489
H      7.305319   -0.954029   -0.777085
H      1.498909   -2.524207    0.032225
H      0.682660   -2.505965    1.603608
H      2.294615   -1.783098    1.520050
H      4.859360   -1.006434   -1.169013
H      5.303573   -0.376055    0.512414
H      4.983197    1.982781   -0.452873
H      4.533043    1.170637   -2.026066
H      2.689974    0.075328   -1.138777
H      2.586070    1.886430   -0.830643
H     -6.000465   -0.580493    3.248705
H     -2.543769   -3.704668   -3.848592
H     -1.195719    4.926522   -1.103814
H      3.240361    1.608061    1.476039
H      3.487278   -0.138813    1.345758
H     -6.104136    0.564447    1.024938
H     -3.917267   -1.559543    4.046027
H     -1.539076   -4.497696   -1.761669
H     -3.097099   -1.326136   -4.046783
H     -2.260395    4.214533    0.984748
H     -0.315388    3.244423   -2.604490
H      1.379668    0.431849    2.427241
H      0.921903    1.526300    1.090103
H     -4.064173    0.701455   -0.374653
H     -1.936092   -1.386615    2.604554
H     -1.099816   -3.016878    0.077253
H     -2.703305    0.231113   -2.274228
H     -2.431726    1.820051    1.546774
H     -0.454574    0.822435   -2.082184
H      0.822657   -0.357627   -0.464840
