51

C     -5.531080    1.960500   -1.102581
C      6.119812    1.920637   -2.019939
C      1.377370   -0.613034    2.458016
C     -4.759528    0.961075   -1.905528
C      5.307732    0.792467   -1.373337
C     -3.302820    0.902777   -1.553114
C      4.487497    1.380782   -0.269320
C     -3.043550    0.535099   -0.125364
C      3.671376    0.332830    0.437770
C     -3.617571   -0.838864    0.214467
C     -3.349251   -1.193190    1.650434
C      2.718284   -0.356214   -0.491478
C     -1.857814   -1.238888    1.969952
C      1.865387   -1.404464    0.085312
C     -1.137712   -2.249885    1.140748
C      0.912301   -1.124273    1.159070
O      0.196531   -2.319124    1.403831
H     -6.612367    1.700246   -1.191666
H     -5.277098    1.950605   -0.037387
H     -5.424813    2.961536   -1.570555
H      5.491249    2.357863   -2.831868
H      7.057960    1.477929   -2.403428
H      6.314857    2.656643   -1.213619
H      1.289795    0.474406    2.639275
H      0.712149   -1.043885    3.282082
H      2.398712   -0.938184    2.736917
H     -5.188690   -0.062730   -1.813813
H     -4.827286    1.246434   -2.978245
H      6.003158    0.019149   -0.995570
H      4.617717    0.351354   -2.145474
H     -2.798366    1.858929   -1.755782
H     -2.840274    0.124242   -2.204447
H      5.206990    1.838614    0.466574
H      3.874049    2.207494   -0.648148
H     -3.430321    1.308120    0.558921
H     -1.943521    0.513466    0.016958
H      3.209769    0.765372    1.346859
H      4.365936   -0.467991    0.825989
H     -3.274132   -1.583690   -0.502740
H     -4.712634   -0.745892    0.103675
H     -3.741490   -0.326340    2.260676
H     -3.890999   -2.069853    1.997076
H      3.404961   -0.898616   -1.225613
H      2.190237    0.356351   -1.167058
H     -1.508362   -0.201795    1.876712
H     -1.808408   -1.602947    3.034598
H      2.567888   -2.251422    0.385444
H      1.309786   -1.885038   -0.783753
H     -1.566284   -3.252299    1.436132
H     -1.379175   -2.169906    0.052475
H      0.152039   -0.372905    0.769864
