54

C      7.285420   -0.582378   -1.005266
C     -5.615278   -0.895353   -2.906980
C     -2.708919    2.363188    2.351659
C      6.001852   -0.202406   -1.748968
C     -5.303730   -1.662683   -1.640585
C      4.800495   -0.755519   -1.001707
C     -4.650137   -0.661490   -0.682262
C      3.556744   -0.361451   -1.762983
C     -4.295360   -1.319591    0.619488
C      2.301647   -0.857476   -1.112162
C      2.087987   -0.353353    0.272278
C      2.003646    1.155769    0.286541
C     -3.663070   -0.347892    1.575834
C      1.788787    1.709166    1.659997
C     -2.402840    0.254467    1.065581
C      0.526042    1.232447    2.314388
C     -1.772123    1.225732    2.045565
O     -0.562008    1.612494    1.537350
H      8.094144   -0.822061   -1.701712
H      7.556251    0.273719   -0.338742
H      7.071544   -1.488536   -0.389536
H     -4.696887   -0.509750   -3.401944
H     -6.243742   -0.005742   -2.697135
H     -6.150331   -1.535783   -3.637493
H     -3.210017    2.703076    1.442191
H     -2.159218    3.200758    2.804008
H     -3.426170    2.006878    3.136738
H      5.905064    0.896633   -1.779233
H      6.095679   -0.614302   -2.752220
H     -6.246232   -2.048719   -1.236931
H     -4.588490   -2.465893   -1.881101
H      4.796835   -0.466396    0.047004
H      4.878438   -1.876717   -1.091533
H     -5.377872    0.141675   -0.522646
H     -3.731107   -0.280411   -1.184106
H      3.628506   -0.894088   -2.756354
H      3.532090    0.712782   -2.008500
H     -3.676907   -2.230688    0.467540
H     -5.274613   -1.632764    1.084899
H      1.460915   -0.683663   -1.801953
H      2.401345   -1.979790   -1.043285
H      2.911955   -0.728510    0.909184
H      1.104452   -0.728345    0.624046
H      1.238882    1.482911   -0.420392
H      2.979406    1.534994   -0.078294
H     -3.495372   -0.929624    2.530084
H     -4.443461    0.395460    1.837454
H      2.655596    1.429871    2.308491
H      1.822365    2.815868    1.583289
H     -2.550543    0.714805    0.083656
H     -1.665657   -0.568597    0.925294
H      0.429406    1.797073    3.276935
H      0.600808    0.152948    2.478140
H     -1.606215    0.677260    2.995786
