42

C      6.051326    1.869381   -0.186345
C     -6.108622    0.857124    0.310017
C      0.320785   -1.481310    1.425972
C      4.593476    1.626833   -0.405112
C     -5.529835   -0.539930    0.367516
C      4.252879    0.148164   -0.440873
C     -4.020897   -0.426751    0.598664
C      2.733136    0.055588   -0.670492
C      2.296249   -1.366804   -0.721301
C     -3.380322    0.352080   -0.541046
C      0.820057   -1.478203   -0.966135
C     -1.904438    0.423350   -0.249404
C      0.009243   -0.829229    0.093818
O     -1.357031   -0.846521   -0.174490
H      6.573395    0.924514    0.106574
H      6.174686    2.577595    0.661891
H      6.560834    2.322731   -1.065658
H     -5.532803    1.498527    1.024160
H     -5.970153    1.237711   -0.709669
H     -7.168309    0.774213    0.620630
H      1.379369   -1.316663    1.659859
H      0.070475   -2.559908    1.439406
H     -0.339569   -1.019375    2.216471
H      3.980820    2.091552    0.391719
H      4.247676    2.037500   -1.397483
H     -5.952849   -1.086047    1.229024
H     -5.720503   -1.100522   -0.568520
H      4.753824   -0.324242   -1.310519
H      4.511649   -0.377058    0.486708
H     -3.845491    0.132393    1.535245
H     -3.566299   -1.431494    0.699918
H      2.437153    0.631549   -1.554976
H      2.226774    0.540598    0.215354
H      2.622297   -1.953777    0.169299
H      2.797163   -1.840862   -1.617603
H     -3.572889   -0.148499   -1.515274
H     -3.768368    1.384048   -0.590394
H      0.629181   -0.984358   -1.948006
H      0.613742   -2.586594   -1.038628
H     -1.804023    0.877192    0.774358
H     -1.395935    1.100353   -0.936073
H      0.282146    0.235150    0.174886
