26

C      4.043114    1.046483   -1.089714
C      1.511666   -0.826412    1.594545
C      3.015332    0.550188   -0.133862
C     -4.253745   -0.153583   -0.744168
C     -3.357818   -1.175837   -0.967722
C     -3.801536    1.006894   -0.157601
C      1.930571   -0.013095   -0.621782
C     -2.020086   -1.005924   -0.593844
C     -2.481007    1.149537    0.201005
C      0.847600   -0.539597    0.250157
C     -1.535324    0.128902   -0.010603
O     -0.226033    0.321218    0.366172
H      4.739074    1.766357   -0.651874
H      4.550338    0.184891   -1.571006
H      3.477211    1.563527   -1.909533
H      2.527077   -1.226135    1.413162
H      1.538125    0.091215    2.189239
H      0.956885   -1.603629    2.158275
H      3.163231    0.653574    0.940551
H     -5.295646   -0.290660   -1.037337
H     -3.656888   -2.110876   -1.425555
H     -4.496619    1.833491    0.029813
H      1.817961   -0.098272   -1.685627
H     -1.356903   -1.830876   -0.787791
H     -2.153718    2.070234    0.659239
H      0.517140   -1.491613   -0.222094
