26

C      3.853160    1.022277    0.680025
C      1.299852   -1.784226   -1.321589
C      2.679098    0.428979   -0.048403
C     -4.036300    0.790264    0.422627
C     -3.428397   -0.324226    0.959837
C     -3.306518    1.609429   -0.409695
C      1.940302   -0.450561    0.621151
C     -2.112642   -0.589596    0.652357
C     -1.992672    1.334255   -0.709748
C      0.755997   -1.058103   -0.093447
C     -1.370924    0.218554   -0.176862
O     -0.047809   -0.011065   -0.511570
H      4.721969    1.109144   -0.009566
H      3.539124    1.985913    1.110399
H      4.176531    0.346980    1.497489
H      1.026016   -2.848830   -1.283944
H      2.394645   -1.655252   -1.412742
H      0.864535   -1.357213   -2.260174
H      2.449966    0.702803   -1.058681
H     -5.087647    1.004261    0.666958
H     -3.986866   -0.972435    1.611368
H     -3.788421    2.484077   -0.829517
H      2.186252   -0.708455    1.625349
H     -1.625898   -1.477020    1.079119
H     -1.413927    1.990413   -1.374268
H      0.310572   -1.790368    0.573529
