42

C     -6.403245    0.247487   -1.285069
C      5.636958    1.039291    0.809380
C      3.512372    0.311880   -0.980023
C     -5.146586    0.917339   -1.781867
C      5.510949   -0.357763    0.259334
C     -3.896770    0.194027   -1.325784
C     -3.847925    0.167900    0.150389
C     -2.666266   -0.515679    0.748359
C     -1.345548    0.060599    0.389563
C     -0.279006   -0.761896    1.086878
C      1.114414   -0.219558    0.758693
C      3.345252   -0.700795    1.329352
C      4.029658   -0.692659    0.011677
O      2.031980   -0.980634    1.399699
H     -6.669024    0.717333   -0.302057
H     -6.275598   -0.826603   -1.098124
H     -7.269513    0.389035   -1.946157
H      5.521550    1.016554    1.894873
H      6.625439    1.449872    0.517227
H      4.822604    1.661842    0.386475
H      2.964655    1.153393   -0.552655
H      3.003858   -0.231323   -1.803110
H      4.396569    0.799179   -1.515898
H     -5.220705    0.963570   -2.891375
H     -5.115516    1.954058   -1.379519
H      5.866298   -1.051658    1.030273
H      6.103446   -0.477671   -0.675104
H     -4.002751   -0.859758   -1.710481
H     -3.047258    0.667578   -1.823149
H     -4.775577   -0.305624    0.530567
H     -3.844908    1.231543    0.516326
H     -2.751027   -0.558784    1.852977
H     -2.670518   -1.584381    0.410865
H     -1.196392    1.102788    0.698239
H     -1.151669   -0.077649   -0.713534
H     -0.347293   -1.838929    0.851962
H     -0.437662   -0.659089    2.180624
H      1.142755    0.847113    0.972234
H      1.162837   -0.329142   -0.367829
H      3.875928   -1.506428    1.940959
H      3.636623    0.234826    1.890094
H      4.056612   -1.705226   -0.465284
