28

C     -3.224130    1.083080   -1.233123
C     -0.975756   -2.027815    1.816046
C     -1.884656    0.469723   -0.929509
C      3.810885    0.932265   -0.687360
C      3.303636    1.650250    0.367664
C      3.132791   -0.139395   -1.226912
C     -2.042680   -0.447808    0.242432
C      2.089381    1.298836    0.906155
C      1.898290   -0.472935   -0.656656
C     -0.717429   -1.113720    0.614930
C      1.367487    0.221632    0.392872
O      0.174062   -0.103799    0.941275
H     -3.138693    2.133375   -1.607103
H     -3.862597    1.156113   -0.306861
H     -3.757320    0.431838   -1.948350
H     -0.479732   -3.023304    1.649667
H     -0.620767   -1.567419    2.760365
H     -2.064033   -2.191581    1.922791
H     -1.508441   -0.151059   -1.785164
H     -1.096140    1.238340   -0.727450
H      4.767996    1.188406   -1.131835
H      3.864751    2.474808    0.754413
H      3.517583   -0.706928   -2.049190
H     -2.459314    0.109249    1.103013
H     -2.780212   -1.237773   -0.042213
H      1.703695    1.870496    1.733050
H      1.375032   -1.325046   -1.097154
H     -0.393689   -1.749830   -0.229003
