42

C     -5.615731    1.747625   -0.272345
C      5.180194    1.728442   -0.937634
C      4.121837    0.176900    1.237581
C     -5.899702    0.280726   -0.216621
C      5.135661    0.218075   -1.021278
C     -4.775478   -0.439281    0.489160
C     -3.447786   -0.247191   -0.220710
C     -2.397501   -1.000408    0.557945
C     -1.070631   -0.796389   -0.169277
C      0.002653   -1.544048    0.593567
C      1.312546   -1.324100   -0.151727
C      2.717237    0.359002   -0.822542
C      3.948895   -0.263113   -0.199463
O      1.549590    0.028202   -0.168646
H     -6.539137    2.316040    0.033368
H     -4.818496    1.980101    0.463430
H     -5.290556    2.087624   -1.288110
H      4.706621    2.175788   -1.835851
H      6.227320    2.093136   -0.865976
H      4.635637    2.111717   -0.043615
H      3.383571    0.970557    1.433054
H      3.961586   -0.705730    1.915578
H      5.140576    0.538891    1.440645
H     -6.832872    0.019918    0.317671
H     -5.973856   -0.088125   -1.262077
H      5.012698   -0.131407   -2.064640
H      6.079557   -0.218848   -0.648869
H     -4.653268    0.069831    1.489139
H     -4.999186   -1.507108    0.651487
H     -3.194006    0.824198   -0.163627
H     -3.490573   -0.615206   -1.271685
H     -2.330122   -0.572799    1.576018
H     -2.603176   -2.077529    0.649520
H     -1.134043   -1.220322   -1.181883
H     -0.775231    0.269719   -0.165514
H     -0.190802   -2.623317    0.663863
H      0.075134   -1.084354    1.604913
H      2.104033   -1.914778    0.372731
H      1.188805   -1.682926   -1.197253
H      2.707886   -0.007581   -1.890774
H      2.882282    1.437348   -0.872691
H      3.957832   -1.369279   -0.271373
