32

C      4.198255    1.454871   -0.815761
C     -0.950013    1.452939   -1.840139
C     -1.504167   -2.289492    1.332910
C      1.742337   -0.967837    1.538251
C      3.210945    0.538680   -0.133733
C     -3.993254   -0.057751   -0.305488
C      1.961637    0.964009    0.030265
C     -3.153705    0.744356   -1.050423
C     -3.426804   -1.042038    0.464924
C     -1.786524    0.564336   -1.023259
C     -2.060383   -1.217748    0.488560
C      1.003404    0.050334    0.702993
C     -1.210994   -0.423103   -0.251037
O      0.157875   -0.605792   -0.221791
H      4.305017    1.189149   -1.872356
H      5.177131    1.289724   -0.319871
H      3.851723    2.493507   -0.653398
H     -1.505242    1.838682   -2.725928
H     -0.011254    0.980061   -2.183810
H     -0.672742    2.326401   -1.215624
H     -1.268646   -1.924696    2.354060
H     -2.270900   -3.113942    1.410684
H     -0.632583   -2.715403    0.812950
H      2.136619   -1.754612    0.842659
H      1.114775   -1.470296    2.271439
H      2.633875   -0.510922    2.016285
H      3.558005   -0.437240    0.199086
H     -5.044124    0.137431   -0.373771
H      1.712455    1.941715   -0.330870
H     -3.577753    1.532655   -1.670078
H     -4.060744   -1.671881    1.047614
H      0.365779    0.703902    1.359833
