72

C      4.553852   -1.927489   -1.041490
C     -4.593393    2.405587   -0.339167
C     -2.507829    2.562013    1.013284
C     -4.345393   -0.330676   -0.650444
C     -1.829599   -3.011183    0.405877
C     -1.934231   -1.644009   -1.789849
C      4.492346    4.083840    1.618826
C      4.347449    4.242390    0.261481
C      4.011545    2.968115    2.278483
C      3.704031    3.257524   -0.454119
C      3.367649    1.997977    1.513714
C     -3.137911   -0.342351    1.532629
C     -1.836760   -1.000316    1.762164
C      2.251843   -1.572828   -1.923176
C      3.171067   -2.481200   -1.107012
C      3.201989    2.119527    0.149706
C      1.089807   -2.295836   -0.089969
C      2.520035   -2.638457    0.260383
C     -1.889087    0.409448   -0.334354
C      0.242581   -1.921302    1.045461
C     -2.399340    1.445199   -1.193004
C      2.527020    1.093977   -0.624580
C      0.078185   -0.506981   -1.307396
C     -3.298866    1.768732    0.031838
C     -3.315018    0.273643    0.216113
C     -1.165462   -1.634996    0.568240
C     -1.253344   -0.843478   -0.700645
C      1.377750   -0.998471   -0.872636
O      2.958846   -1.711715    1.173814
O      0.174618   -2.980560    1.955484
O     -1.476608    2.491097   -1.394266
O      2.413980    1.273176   -1.858088
O      0.020056    0.259004   -2.258824
O      2.009665   -0.056815   -0.070867
H      4.638818   -0.842791   -1.027837
H      5.092623   -2.266219   -1.975419
H      5.109987   -2.415593   -0.211415
H     -4.874432    2.277088   -1.386754
H     -4.470063    3.516814   -0.181468
H     -5.389261    2.110674    0.382389
H     -1.602104    3.034446    0.531686
H     -3.108429    3.451269    1.366127
H     -2.193698    2.035571    1.912043
H     -4.181384   -0.314599   -1.721165
H     -4.633520   -1.345721   -0.244957
H     -5.297032    0.267277   -0.491188
H     -1.483160   -3.537427   -0.480070
H     -2.932904   -2.881369    0.467646
H     -1.521315   -3.601451    1.293132
H     -2.777435   -2.238842   -1.461777
H     -2.101685   -1.005946   -2.678822
H     -1.157098   -2.391505   -2.135897
H      4.993489    4.847774    2.186255
H      4.735272    5.121843   -0.206060
H      4.142855    2.879371    3.335846
H      3.561452    3.334244   -1.540306
H      2.989491    1.118991    2.037089
H     -3.312128    0.388187    2.349191
H     -3.945067   -1.121058    1.673783
H     -1.141932   -0.259992    2.240082
H     -1.968060   -1.813069    2.517902
H      1.612992   -2.289179   -2.518608
H      2.803388   -0.889862   -2.558305
H      3.250665   -3.497205   -1.566602
H      0.705047   -3.038289   -0.784370
H      2.633775   -3.665168    0.646270
H     -1.277957    0.881534    0.501828
H      0.680576   -1.034973    1.553110
H     -2.940947    1.257031   -2.106491
H      3.909738   -1.528135    1.178318
H     -0.109041   -2.624418    2.848124
H     -1.972989    3.328108   -1.520916
