33

C      0.175406   -2.014821   -0.530195
C     -0.168945    1.971266    0.303807
C      4.747752   -0.117969    0.658971
C     -4.569215   -0.427840    0.347877
C      4.068492    0.784437   -0.125936
C      4.102940   -1.279773    0.995923
C     -3.852981    0.313248    1.253856
C     -4.062480   -0.680099   -0.918039
C      2.794589    0.540264   -0.559881
C      2.804120   -1.536545    0.557870
C     -2.614792    0.807976    0.888993
C     -2.823395   -0.163797   -1.231171
C      0.751633   -0.857797   -0.704475
C     -0.757555    1.113146   -0.790933
C      2.123582   -0.639301   -0.224865
C     -2.057512    0.586494   -0.366025
O      0.096529    0.166955   -1.331039
H      0.626386   -2.867767   -0.046144
H     -0.849714   -2.179302   -0.893850
H     -0.952837    2.728767    0.604295
H      0.694873    2.566349    0.014369
H      0.089129    1.363623    1.193993
H      5.748674    0.086494    0.993104
H     -5.534705   -0.803377    0.657477
H      4.608139    1.711574   -0.383645
H      4.575862   -2.052061    1.619511
H     -4.244819    0.513722    2.246019
H     -4.631049   -1.265849   -1.630912
H      2.286486    1.262470   -1.177342
H      2.318882   -2.475769    0.849568
H     -2.079012    1.379070    1.611854
H     -2.420721   -0.362212   -2.232088
H     -0.993744    1.828424   -1.650944
