68

C      6.955784    2.793072    1.569119
C     -7.014190    2.006955   -0.017281
C      7.245729    1.628148   -0.987349
C     -2.562036   -3.821012   -0.018380
C      2.300057   -1.071201    1.763201
C     -5.011944    0.558195   -2.105491
C     -0.979598    0.446781   -0.888359
C      5.886233    1.945461    0.969614
C     -5.714968    1.815473   -0.133735
C      0.102682    1.301912    1.622580
C     -0.498883   -3.146364   -1.035332
C      0.591381   -2.115334   -0.986765
C     -3.326366   -1.109164   -0.329914
C      1.373276    0.999747    0.897229
C     -0.919784    0.222064    1.555641
C     -3.881066    0.215583    0.112401
C      2.680776   -0.439543   -0.525230
C      5.996030    1.388395   -0.224485
C     -1.692641   -2.847958   -0.255688
C     -2.033571   -1.509014    0.315984
C      0.418590   -1.277138    0.259423
C      4.915658    0.555702   -0.784503
C      1.584676   -0.441809    0.548776
C     -5.206879    0.510682   -0.607086
C     -0.913964   -0.533957    0.227261
O      5.041111    0.045582   -1.902411
O     -6.146198   -0.461250   -0.323396
O      3.785458    0.362982   -0.047890
H      7.234813    3.552685    0.793656
H      7.850111    2.213015    1.836980
H      6.526194    3.358127    2.414080
H     -7.428319    2.966724    0.332454
H     -7.694014    1.205903   -0.269812
H      8.130845    1.518630   -0.308205
H      7.213215    2.669558   -1.372880
H      7.389611    0.888155   -1.789403
H     -3.458194   -3.660942    0.549167
H     -2.373270   -4.813797   -0.404219
H      1.551690   -1.576056    2.386109
H      2.992998   -1.875047    1.398761
H      2.833194   -0.310480    2.349953
H     -4.040467    0.971783   -2.393919
H     -5.792353    1.196346   -2.570210
H     -5.132095   -0.459951   -2.557613
H     -0.016990    0.370350   -1.448362
H     -0.970844    1.485006   -0.502655
H     -1.753373    0.244332   -1.655644
H      4.959642    1.760362    1.520929
H     -5.047240    2.620631    0.120726
H     -0.381774    2.242587    1.288066
H      0.308616    1.471133    2.720271
H     -0.719394   -3.414875   -2.099874
H     -0.087427   -4.113879   -0.613674
H      0.509595   -1.527963   -1.924405
H      1.542527   -2.683833   -0.929902
H     -4.146525   -1.852237   -0.089616
H     -3.284794   -1.129410   -1.438441
H      1.402681    1.648433   -0.004881
H      2.216985    1.363621    1.525027
H     -0.620069   -0.557286    2.316699
H     -1.888735    0.608691    1.848139
H     -3.247740    1.080953   -0.028047
H     -4.164562    0.200671    1.205272
H      2.359138    0.078126   -1.451092
H      3.040308   -1.427573   -0.793514
H     -2.302023   -1.742434    1.392763
H      0.249984   -2.040989    1.079099
H     -6.737304   -0.552061   -1.099715
