35

C     -0.506403    0.896821    2.091960
C     -2.492114   -0.098762   -2.277858
C      0.887221   -0.786805   -2.314753
C      4.365756    0.076976    1.143055
C      3.759770    1.053562    0.381242
C      3.708350   -1.130085    1.245167
C     -4.050013    0.313096    1.113084
C     -2.949733    0.572933    1.866261
C     -3.927875    0.090755   -0.239132
C      2.551508    0.833991   -0.250020
C      2.495069   -1.350496    0.611253
C     -1.688173    0.614419    1.263987
C     -2.658198    0.134816   -0.832084
C      0.583429   -0.635264   -0.823161
C      1.884283   -0.377354   -0.152014
C     -1.534426    0.396340   -0.084896
O     -0.310642    0.438643   -0.657356
H      0.222631    1.554832    1.620840
H     -0.814565    1.393237    3.057710
H     -0.060584   -0.085107    2.417320
H     -1.724510    0.564850   -2.729810
H     -2.322478   -1.161962   -2.488399
H     -3.453101    0.172408   -2.798738
H      1.890062   -1.191558   -2.491401
H      0.851874    0.231504   -2.773639
H      0.159308   -1.468455   -2.798117
H      5.321719    0.249398    1.643034
H      4.274388    2.000860    0.300320
H      4.193585   -1.903821    1.851805
H     -5.041902    0.279320    1.580000
H     -3.062137    0.745270    2.926173
H     -4.815398   -0.118170   -0.842862
H      2.068241    1.602802   -0.853458
H      2.007452   -2.321949    0.718191
H      0.187603   -1.587044   -0.423702
