33

C     -1.145591   -0.699602   -2.353239
C      0.767103    1.598836   -0.513608
C     -4.707344    0.573150    1.136543
C      4.646137   -0.941623    1.496949
C     -3.494771    0.379697    1.761778
C     -4.768519    0.407386   -0.221898
C      4.282307    0.379151    1.347039
C      3.841730   -1.913882    0.922003
C     -2.378515    0.029722    1.037935
C     -3.632673    0.053153   -0.944184
C      3.150740    0.714618    0.644801
C      2.703942   -1.552370    0.217421
C     -1.197371   -0.516647   -1.058806
C      1.105965    0.135031   -0.697764
C     -2.417044   -0.145018   -0.349376
C      2.327000   -0.235734    0.058869
O      0.004954   -0.695388   -0.339318
H     -2.021613   -0.579119   -2.951129
H     -0.220327   -0.972226   -2.821158
H     -0.177244    1.807148   -1.024281
H      0.774849    1.904101    0.558874
H      1.563465    2.164011   -1.080690
H     -5.606747    0.849659    1.678383
H      5.544522   -1.206811    2.054545
H     -3.445118    0.511913    2.846705
H     -5.705850    0.553819   -0.728759
H      4.914231    1.132073    1.798034
H      4.154298   -2.940466    1.057550
H     -1.421995   -0.124379    1.519683
H     -3.708586   -0.073724   -2.034020
H      2.889252    1.765581    0.543443
H      2.118501   -2.347358   -0.206500
H      1.260313   -0.014702   -1.794638
