72

C      4.221368   -2.047131    1.359981
C     -2.589982    2.644745   -1.576930
C     -4.169084    3.395185    0.243379
C     -4.209628    0.925030    1.396819
C     -2.305356   -2.329768    1.065925
C     -1.711577   -0.307408    2.513270
C      5.623778    1.381652   -3.523250
C      5.813986    0.747528   -2.334315
C      4.347671    1.677293   -3.927116
C      4.713262    0.405433   -1.540665
C      3.267792    1.330530   -3.126314
C     -3.535468   -0.091851   -0.761676
C     -2.374238   -1.006778   -0.956486
C      2.114328   -1.152021    2.228152
C      2.804318   -2.385717    1.667630
C      3.419498    0.687659   -1.916097
C      0.725586   -2.059790    0.710534
C      1.999966   -2.801062    0.420027
C     -1.828452    1.052498    0.400430
C     -0.311355   -1.998127   -0.291911
C     -1.997035    2.405035    0.846810
C      2.257367    0.342555   -1.102021
C      0.241523    0.224148    1.251639
C     -3.135776    2.407377   -0.209580
C     -3.337044    0.979087    0.218920
C     -1.535312   -1.275385    0.267484
C     -1.225113   -0.073189    1.098565
C      1.315062   -0.692566    0.977616
O      2.587086   -2.333398   -0.721960
O     -0.792874   -3.288960   -0.663286
O     -1.037009    3.318228    0.408390
O      1.141944    0.654220   -1.577472
O      0.490221    1.355096    1.645508
O      2.291547   -0.271358    0.095624
H      4.556815   -2.382061    0.352776
H      4.881412   -2.585534    2.080651
H      4.441323   -0.949152    1.538313
H     -2.493744    1.768041   -2.212425
H     -3.279639    3.356251   -2.116391
H     -1.614438    3.198497   -1.527979
H     -4.220151    3.416669    1.348446
H     -3.784841    4.409342   -0.046212
H     -5.151205    3.237146   -0.200175
H     -3.810432    1.310835    2.333157
H     -4.712261   -0.075322    1.566668
H     -5.103634    1.589426    1.167700
H     -3.391434   -2.035201    1.157058
H     -2.329723   -3.253382    0.455675
H     -1.840630   -2.561202    2.022138
H     -2.681424   -0.790866    2.593404
H     -1.648186    0.642817    3.118488
H     -0.984101   -0.986354    3.011336
H      6.443827    1.665678   -4.169943
H      6.813289    0.498576   -1.986222
H      4.210886    2.183787   -4.880694
H      4.916759   -0.089956   -0.618445
H      2.275298    1.572428   -3.462020
H     -3.825871    0.288202   -1.773892
H     -4.406209   -0.724496   -0.432724
H     -1.754631   -0.622434   -1.791751
H     -2.765139   -2.006024   -1.291861
H      1.363953   -1.417138    2.974939
H      2.813667   -0.364663    2.530565
H      2.778683   -3.213471    2.409387
H      0.361880   -2.460464    1.711126
H      1.894145   -3.895302    0.449902
H     -1.388238    1.080273   -0.651614
H     -0.047696   -1.526060   -1.235346
H     -2.340746    2.665174    1.852063
H      3.258668   -2.922544   -1.132035
H     -0.095429   -3.678008   -1.280459
H     -0.621803    3.837702    1.144599
