68

C     -7.668168   -1.804459    0.933424
C      6.177782    1.301950   -0.465947
C     -5.031420   -1.911930    0.167223
C      2.029346   -1.578416    2.540761
C     -0.790409    3.239411   -0.182117
C      5.684855   -2.043188   -1.242428
C      0.469957   -0.902080   -0.838376
C     -6.870923   -0.561375    0.914509
C      5.372569    0.421902   -1.052729
C      0.104061    1.555444   -2.233896
C     -0.240625   -1.158040    1.909761
C     -1.175533   -0.205440    1.267169
C      3.137166    0.078396    0.528565
C     -1.292262    1.444984   -1.738817
C      1.172529    1.383720   -1.203917
C      3.599097   -1.100688   -0.228203
C     -2.792454    1.934939    0.173453
C     -5.604760   -0.596830    0.549275
C      1.188617   -0.856587    1.801269
C      1.738038    0.190534    0.930725
C     -0.508969    0.948743    0.579252
C     -4.849145    0.639916    0.541117
C     -1.373421    1.815111   -0.249290
C      5.106162   -0.900077   -0.477522
C      0.715791    0.407391   -0.152344
O     -5.420775    1.704288    0.880871
O      5.683062   -0.934712    0.813268
O     -3.522519    0.744598    0.182090
H     -7.407167   -2.471323    0.068098
H     -7.551907   -2.341036    1.909749
H     -8.733850   -1.528845    0.769145
H      6.647741    1.025555    0.466166
H      6.370158    2.268540   -0.890256
H     -5.436318   -2.169567   -0.825144
H     -5.286997   -2.703495    0.911095
H     -3.905538   -1.877984    0.160541
H      1.674645   -2.378175    3.215176
H      3.111093   -1.416545    2.519754
H     -0.386575    3.589687   -1.128028
H     -0.017606    3.309400    0.638491
H     -1.560670    3.986273    0.121960
H      6.683376   -1.734256   -1.612601
H      5.840890   -2.920935   -0.584722
H      5.090444   -2.297427   -2.147277
H      1.012300   -1.761003   -0.344494
H     -0.564676   -1.220228   -0.921864
H      0.861934   -0.909313   -1.899470
H     -7.353958    0.384242    1.209306
H      4.899869    0.691698   -1.984156
H      0.215852    0.810761   -3.076591
H      0.300724    2.546719   -2.739837
H     -0.391691   -2.208115    1.544501
H     -0.468323   -1.232292    3.015525
H     -1.823433   -0.757599    0.585122
H     -1.859301    0.246331    2.043277
H      3.776453    0.171024    1.442084
H      3.398410    0.986635   -0.067530
H     -1.881455    2.267839   -2.246519
H     -1.821398    0.524918   -1.972575
H      2.031125    0.874462   -1.738021
H      1.606626    2.305673   -0.807521
H      3.512288   -2.071981    0.254262
H      3.145460   -1.187183   -1.257917
H     -3.304499    2.620414   -0.556845
H     -2.849355    2.471025    1.147437
H      1.689089    1.131939    1.572842
H     -0.125540    1.593769    1.429303
H      5.824130   -1.877107    1.101901
