33

C      4.319004    0.619964    0.242986
C     -3.163017   -0.690906   -1.308958
C     -3.064443    1.630987   -0.514765
C      1.972540   -0.263217   -1.293194
C      2.940162    0.547727    0.836844
C     -2.068832   -0.125304    0.853178
C     -1.350666   -1.424185    0.958231
C      0.736765   -0.500649    0.868141
C     -2.326220    0.308294   -0.565249
C      2.103333   -0.546914    0.179497
O     -0.122071   -1.424548    0.342955
H      4.382189    0.053278   -0.701586
H      4.628366    1.658144    0.051261
H      5.061466    0.166566    0.950580
H     -3.747472   -1.287739   -0.577919
H     -3.890031   -0.143262   -1.939945
H     -2.556637   -1.323129   -1.993479
H     -4.088575    1.497590   -0.123456
H     -2.549940    2.362439    0.142219
H     -3.150608    2.098914   -1.518956
H      2.217242    0.801438   -1.484465
H      0.916012   -0.391495   -1.637433
H      2.653402   -0.951839   -1.831993
H      2.445049    1.523449    0.643925
H      2.984792    0.412039    1.925493
H     -3.086390   -0.174096    1.346101
H     -1.528304    0.668634    1.382155
H     -1.164133   -1.606653    2.057280
H     -1.969008   -2.296157    0.649718
H      0.932787   -0.663159    1.949026
H      0.344490    0.541513    0.753148
H     -1.348901    0.456972   -1.051227
H      2.537648   -1.534695    0.359632
