27

C      2.291737   -0.557540   -1.370009
C     -2.380366    0.421092   -0.804602
C     -2.823581   -1.097006    1.089207
C      2.225283    1.119369    0.954382
C      1.219047    0.507960   -1.235475
C      0.470844   -0.652266    0.758539
C     -1.782958   -0.159231    0.429057
C      0.932575    0.692315    0.273240
O     -0.719950   -0.971982    0.132468
H      2.920015   -0.641817   -0.460596
H      2.933779   -0.245617   -2.243997
H      1.843591   -1.552326   -1.552113
H     -1.793116    1.305743   -1.126383
H     -3.416529    0.777733   -0.637551
H     -2.399969   -0.311694   -1.644130
H     -3.773044   -0.565993    1.156555
H     -2.393339   -1.424174    2.043578
H     -2.869771   -2.008914    0.429871
H      2.022633    2.109317    1.457093
H      2.509727    0.417887    1.740342
H      2.997383    1.288649    0.201529
H      0.284776    0.112749   -1.667492
H      1.465721    1.451477   -1.713937
H      1.227674   -1.397429    0.382481
H      0.393601   -0.700531    1.867056
H     -1.533367    0.656034    1.133070
H      0.147604    1.426196    0.407818
