19

C      2.868178   -0.866291   -0.236174
C     -0.831634    1.921494   -0.119077
C     -2.461393   -1.031465    0.379418
C      1.451746   -0.619932   -0.636965
C     -0.726164    0.398360   -0.085299
C      0.701930    0.086209    0.202333
I      1.513642    0.816426    2.023356
O     -1.500416   -0.148982    0.912033
H      3.299791   -1.606254   -0.943640
H      2.935942   -1.240327    0.822866
H      3.490721    0.047809   -0.336124
H     -1.713548    2.172424   -0.728671
H      0.082151    2.322231   -0.577175
H     -0.904775    2.318745    0.929126
H     -3.049417   -1.436827    1.227622
H     -3.165340   -0.393205   -0.222496
H     -2.003439   -1.798816   -0.255474
H      1.018659   -0.983528   -1.561100
H     -1.006634    0.041927   -1.103054
