29

C     -1.824684   -0.955057   -1.427793
C     -1.426582   -2.035841    0.670476
C     -0.822677    0.870045    1.554463
C     -2.113205    1.923191   -0.687815
C      3.665272   -0.211605   -0.254018
C      3.071979    0.847355   -0.860460
C      2.889392   -1.090127    0.473678
C      1.715941    1.024384   -0.739513
C      1.508664   -0.940979    0.617989
C     -1.271685   -0.849701   -0.199291
C      0.924302    0.126569    0.003630
C     -0.552441    0.392217    0.105115
O     -0.861427    1.390449   -0.779007
H     -2.353343   -1.873598   -1.737012
H     -1.766147   -0.186607   -2.161500
H     -0.834574   -2.906020    0.369609
H     -1.301992   -1.832701    1.752998
H     -2.507500   -2.370489    0.499330
H     -0.718294    1.966363    1.627675
H     -0.037963    0.424040    2.199459
H     -1.796018    0.485878    1.912619
H     -2.937416    1.213366   -0.812634
H     -2.213340    2.630626   -1.567031
H     -2.286921    2.510528    0.244367
H      4.749009   -0.362557   -0.344514
H      3.642480    1.545675   -1.430488
H      3.327720   -1.938951    0.966351
H      1.188332    1.846406   -1.197619
H      0.943119   -1.642860    1.200935
