27

C      2.811075   -1.138895   -0.462277
C     -2.603765   -1.548946    0.633346
C     -3.016154    0.585935   -0.552417
C      1.122905    2.015677    0.762084
C      2.632176    0.331065   -0.249618
C      0.228919   -0.082262   -0.273946
C     -1.973429   -0.484594   -0.244922
C      1.352314    0.549593    0.519934
O     -0.942146    0.085771    0.465615
H      2.287401   -1.773976    0.268645
H      2.574338   -1.420573   -1.516636
H      3.904484   -1.369086   -0.340430
H     -3.439695   -1.095108    1.230892
H     -2.970215   -2.401576    0.048456
H     -1.838575   -1.960689    1.347989
H     -3.061657    1.292803    0.303707
H     -2.603512    1.162717   -1.427283
H     -3.998265    0.152134   -0.781442
H      0.791704    2.493410   -0.172525
H      0.352251    2.120090    1.565790
H      2.074151    2.441802    1.146129
H      3.485464    0.776324    0.340353
H      2.541227    0.866458   -1.227222
H      0.084434    0.444019   -1.230273
H      0.484037   -1.141379   -0.444841
H     -1.673360   -0.929986   -1.197148
H      1.393894    0.029272    1.488040
