45

C      6.077539   -1.840567    0.121863
C     -5.880701   -0.886959   -0.535738
C      0.925960    2.424131   -1.741549
C      4.761537   -1.155138    0.504398
C     -5.556807   -0.584008    0.889881
C      3.810585   -1.140638   -0.658465
C     -4.247158    0.179099    1.031373
C      2.523880   -0.467680   -0.264067
C     -3.092854   -0.583920    0.483597
C      2.726707    0.964850    0.175825
C     -1.798945    0.165244    0.646947
C      1.418999    1.575065    0.554089
C     -1.888131    1.471406   -0.085517
C      0.393954    1.611941   -0.559083
O     -0.725623    2.229764   -0.010941
H      5.827187   -2.774252   -0.453540
H      6.650229   -2.090212    1.033368
H      6.671595   -1.141089   -0.480072
H     -6.991141   -0.860872   -0.660890
H     -5.495007   -0.069667   -1.211025
H     -5.552891   -1.883788   -0.871679
H      1.411074    3.339868   -1.348755
H      1.644960    1.835946   -2.311706
H      0.112014    2.751671   -2.401098
H      4.291119   -1.657369    1.355180
H      5.050781   -0.106393    0.799756
H     -5.475666   -1.524220    1.480267
H     -6.372923    0.028561    1.316495
H      3.582639   -2.170756   -0.937363
H      4.281810   -0.583545   -1.501012
H     -4.369589    1.138131    0.441740
H     -4.102467    0.478023    2.076696
H      1.837190   -0.499758   -1.136567
H      2.075195   -1.081059    0.547427
H     -3.053248   -1.590734    0.979269
H     -3.303537   -0.752250   -0.608096
H      3.316380    1.546875   -0.527556
H      3.326305    0.909596    1.132873
H     -0.937886   -0.470743    0.315242
H     -1.614534    0.335756    1.735307
H      0.947348    1.035515    1.397601
H      1.555921    2.652914    0.861245
H     -2.646590    2.089479    0.488440
H     -2.276258    1.327802   -1.089866
H      0.161049    0.614045   -0.974291
