39

C      4.200927    0.611558    1.400094
C     -4.283837    1.970225    1.284021
C     -1.629984   -2.434472   -1.605883
C      3.267452    1.250528    0.421486
C     -3.397317    0.762700    0.992820
C     -1.610499   -1.791455   -0.240964
C      3.141383    0.503485   -0.870884
C      2.635608   -0.887620   -0.726861
C      1.268951   -0.998813   -0.100147
C      0.261754   -0.275112   -0.919903
C     -1.966836    1.200203    1.169766
C     -1.138552   -0.357640   -0.342233
O     -1.119610    0.163924    0.932404
H      3.871207   -0.377745    1.743961
H      4.242088    1.263795    2.297989
H      5.249936    0.591828    1.001365
H     -5.115111    1.938479    0.562701
H     -3.697565    2.909819    1.130630
H     -4.649205    1.875400    2.327072
H     -1.535004   -1.654118   -2.388132
H     -2.563159   -2.996721   -1.808583
H     -0.780249   -3.147691   -1.670612
H      3.710023    2.256366    0.164848
H      2.299692    1.452477    0.875108
H     -3.667100   -0.064618    1.683680
H     -3.560626    0.383248   -0.022315
H     -0.995809   -2.369530    0.482356
H     -2.643629   -1.813788    0.154088
H      2.452399    1.068912   -1.528070
H      4.112043    0.494017   -1.424441
H      2.521784   -1.297224   -1.774097
H      3.349416   -1.578439   -0.236501
H      1.046496   -2.079169    0.031495
H      1.368722   -0.574199    0.932422
H      0.224645   -0.665919   -1.948242
H      0.538006    0.797750   -0.959089
H     -1.736154    2.072579    0.514571
H     -1.815944    1.603812    2.212858
H     -1.856343    0.193168   -0.972195
