48

C     -5.905872    1.322537    1.099504
C      6.857754   -1.107454    0.767698
C      0.649655    0.903798   -2.440114
C     -6.106078    0.260600    0.080900
C      5.753793   -0.418979    1.539566
C     -4.879429   -0.393369   -0.446201
C      4.417767   -0.545459    0.837879
C     -4.008626   -1.125309    0.501499
C      4.432660    0.062403   -0.531601
C     -3.313382   -0.365801    1.565788
C      3.064835   -0.119833   -1.150067
C     -2.332557    0.657682    1.016700
C      1.966057    0.543205   -0.348037
C     -1.250847   -0.049508    0.198825
C      0.638026    0.316175   -1.044241
O     -0.361461    0.890386   -0.297675
H     -6.148673    0.966166    2.138864
H     -4.951260    1.864640    1.061479
H     -6.680277    2.165228    0.957931
H      6.540475   -2.084859    0.351943
H      7.729531   -1.251475    1.437929
H      7.173980   -0.443667   -0.049489
H      1.127973    1.895893   -2.418132
H     -0.409580    1.049531   -2.763138
H      1.218306    0.274100   -3.160812
H     -6.764434   -0.542910    0.554919
H     -6.714380    0.711337   -0.763157
H      5.643970   -0.903124    2.531923
H      6.004751    0.633679    1.666114
H     -4.277641    0.363013   -1.046385
H     -5.185666   -1.149919   -1.243947
H      4.045304   -1.569434    0.797366
H      3.701670    0.068824    1.461388
H     -3.288272   -1.785998   -0.052721
H     -4.679928   -1.872822    1.044956
H      5.204213   -0.394980   -1.171854
H      4.644609    1.164191   -0.475299
H     -2.707295   -1.130369    2.157139
H     -4.012433    0.081633    2.281539
H      3.054431    0.209080   -2.203625
H      2.817762   -1.221955   -1.197033
H     -2.834508    1.343026    0.333271
H     -1.898620    1.224657    1.852295
H      2.189850    1.615015   -0.195532
H      1.852244    0.041212    0.654494
H     -1.739393   -0.524449   -0.676218
H     -0.768723   -0.838850    0.804976
H      0.489718   -0.787484   -1.071042
