39

C      4.707050    0.014766   -0.431910
C     -2.672996   -2.306833   -1.055018
C     -0.890776    3.166392    0.527111
C      4.158119   -1.189576    0.286178
C     -3.620749   -1.169950   -0.738037
C     -1.444474    1.938250    1.197317
C      2.858651   -0.813468    0.920447
C      1.901927   -0.364224   -0.186351
C      0.601548    0.006474    0.500676
C     -0.437520    0.470150   -0.479850
C     -3.425631   -0.723413    0.685309
C     -1.730842    0.813374    0.202966
O     -2.167268   -0.275787    0.918840
H      4.259132    0.955082   -0.000400
H      4.413756   -0.063013   -1.497316
H      5.826418    0.037941   -0.352880
H     -2.336954   -2.259918   -2.115293
H     -3.186075   -3.250922   -0.844397
H     -1.765108   -2.273972   -0.416121
H     -1.188179    4.094425    1.070820
H     -1.326520    3.274775   -0.497835
H      0.207234    3.146199    0.429402
H      4.880951   -1.506402    1.077773
H      4.001802   -2.014769   -0.438975
H     -3.429974   -0.330600   -1.447767
H     -4.655542   -1.549096   -0.893319
H     -0.750103    1.633765    1.997380
H     -2.430547    2.229947    1.666283
H      2.401940   -1.698913    1.411473
H      3.012415   -0.013337    1.661909
H      1.735477   -1.188129   -0.881931
H      2.297713    0.560667   -0.649976
H      0.210840   -0.762408    1.165575
H      0.863719    0.900408    1.143707
H     -0.040049    1.373790   -1.042351
H     -0.570743   -0.355734   -1.220477
H     -3.552867   -1.655815    1.312670
H     -4.234127   -0.051339    1.034307
H     -2.481647    1.201213   -0.515694
