48

C     -3.632777   -1.301778   -2.976975
C      4.254695   -2.688091   -0.459233
C      1.697097    2.430118    2.122573
C     -3.306259   -1.824909   -1.614810
C      2.784230   -2.431731   -0.328989
C     -3.616685   -0.767863   -0.557062
C      2.442433   -1.015701   -0.772224
C     -2.775670    0.447601   -0.856497
C      3.200051   -0.052362    0.104019
C     -2.993933    1.579611    0.115103
C      2.902659    1.349288   -0.313349
C     -2.661633    1.148309    1.510476
C      1.454074    1.653979   -0.191567
C     -1.221435    0.718773    1.571115
C      0.931577    1.485452    1.224067
O     -0.416258    1.766813    1.204733
H     -4.391702   -0.495974   -2.854288
H     -2.719563   -0.905372   -3.444427
H     -4.063003   -2.144668   -3.579416
H      4.757733   -2.606166    0.521101
H      4.695456   -1.956881   -1.163818
H      4.387317   -3.719145   -0.894702
H      1.745108    3.416266    1.602219
H      2.702363    2.019938    2.279506
H      1.224832    2.585339    3.097318
H     -3.868353   -2.768744   -1.393094
H     -2.227710   -2.053957   -1.568749
H      2.188565   -3.108153   -0.966218
H      2.437513   -2.581264    0.730151
H     -4.680048   -0.477270   -0.587392
H     -3.326713   -1.168342    0.445357
H      2.757063   -0.905878   -1.824002
H      1.333912   -0.881626   -0.629642
H     -1.698481    0.180904   -0.948313
H     -3.035294    0.834504   -1.894724
H      2.956774   -0.202989    1.180408
H      4.284257   -0.298655    0.009390
H     -4.019903    2.000084    0.039537
H     -2.298828    2.433323   -0.124375
H      3.170937    1.513717   -1.398553
H      3.556460    2.060851    0.231747
H     -3.295582    0.298353    1.814791
H     -2.856472    2.030020    2.163904
H      1.275970    2.724724   -0.501248
H      0.876659    1.030461   -0.887400
H     -1.009718   -0.141993    0.911856
H     -0.956209    0.352909    2.600162
H      1.054494    0.438173    1.543324
