25

C      3.194428    1.071591   -0.265701
C     -0.148999   -2.044984   -0.381581
C     -2.314597   -0.673496    1.035301
C      2.058045    0.324863    0.382589
C     -1.228259    1.537642    0.310264
C     -1.751861    0.849967   -0.943411
C      0.059568   -0.650904    0.182170
C     -1.271912    0.048732    0.184742
O      1.035765    0.024220   -0.508414
H      3.755129    0.379535   -0.930515
H      2.892214    2.006353   -0.746260
H      3.895987    1.354332    0.561864
H     -1.210028   -2.200956   -0.708000
H      0.046440   -2.818465    0.378407
H      0.543794   -2.170166   -1.238948
H     -2.810292   -1.479117    0.473309
H     -1.797530   -1.130488    1.928311
H     -3.051191    0.032405    1.459360
H      2.478703   -0.620069    0.788254
H      1.621595    0.866567    1.230754
H     -1.979742    2.028774    0.980400
H     -0.302101    2.102913    0.157472
H     -2.866641    0.931555   -1.069191
H     -1.215372    0.988218   -1.884629
H      0.366855   -0.759021    1.238552
