48

C     -5.773395    0.366863    0.779379
C      5.954800   -0.648322    1.005790
C     -0.690053    0.851815    1.991005
C     -4.914541   -0.820116    0.500948
C      5.266442   -0.075501   -0.214948
C     -0.103444   -0.455932    1.586240
C     -4.430311   -0.900838   -0.916596
C      4.135883    0.824215    0.279200
C     -3.612408    0.254722   -1.353855
C      3.391193    1.441317   -0.878073
C     -2.340676    0.470816   -0.524826
C      2.769019    0.432934   -1.786806
C     -1.434804   -0.692684   -0.579744
C      1.768301   -0.444876   -1.071357
C     -0.140943   -0.652528    0.118248
O      0.728731    0.271221   -0.522581
H     -5.393381    0.928944    1.675291
H     -5.896979    1.043953   -0.099111
H     -6.817228    0.062791    1.073414
H      7.028766   -0.789273    0.776930
H      5.862921    0.119921    1.822918
H      5.449647   -1.565679    1.346646
H     -0.776338    1.601598    1.182308
H     -0.007956    1.388220    2.744549
H     -1.645019    0.793469    2.551846
H     -4.083434   -0.861317    1.229091
H     -5.521532   -1.745264    0.687137
H      4.867365   -0.936989   -0.784963
H      5.920994    0.533312   -0.836662
H      0.964096   -0.463344    1.971562
H     -0.553132   -1.320302    2.150767
H     -3.856647   -1.836409   -1.040212
H     -5.348208   -0.934243   -1.572030
H      3.514229    0.225289    0.942019
H      4.568084    1.656687    0.871388
H     -4.243423    1.166517   -1.339077
H     -3.346115    0.095577   -2.427072
H      2.633078    2.149038   -0.519597
H      4.129688    2.027344   -1.459871
H     -1.907307    1.393081   -0.895810
H     -2.744975    0.533998    0.531459
H      2.202097    0.997625   -2.564994
H      3.528298   -0.152701   -2.330315
H     -1.991893   -1.654996   -0.324317
H     -1.207389   -0.862896   -1.682597
H      1.438283   -1.212277   -1.802350
H      2.315545   -0.933225   -0.234313
H      0.344073   -1.671555   -0.056059
