48

C     -5.798963    2.223483    0.258403
C      3.937076    0.690776   -2.362017
C     -0.778136   -3.326680    0.096658
C     -4.299249    1.943205    0.096998
C      4.521598    1.455505   -1.197437
C     -0.813154   -2.324612    1.203508
C     -4.117939    0.995693   -1.066345
C      3.882017    1.072880    0.119803
C     -2.681497    0.645244   -1.328215
C      4.083870   -0.400490    0.393699
C     -2.071456   -0.022237   -0.119771
C      3.474614   -0.841209    1.681121
C     -0.622120   -0.388954   -0.357752
C      1.982132   -0.615725    1.739394
C     -0.042363   -1.047018    0.860639
O      1.312171   -1.305752    0.737587
H     -6.221446    1.557182    1.029344
H     -6.289192    2.063468   -0.735728
H     -5.945567    3.288097    0.571251
H      4.361802   -0.333042   -2.430954
H      4.240559    1.223120   -3.290544
H      2.840230    0.629094   -2.333017
H     -0.787102   -4.355815    0.469318
H     -1.669327   -3.136118   -0.570179
H      0.113856   -3.176517   -0.563741
H     -3.781097    2.899564   -0.110735
H     -3.966862    1.510875    1.062142
H      5.608056    1.185550   -1.156647
H      4.468872    2.536112   -1.341099
H     -1.838791   -2.060667    1.527692
H     -0.337914   -2.786045    2.110131
H     -4.528039    1.517344   -1.969714
H     -4.746443    0.108871   -0.883272
H      4.326620    1.714007    0.892306
H      2.784819    1.224253    0.011066
H     -2.104067    1.565199   -1.518534
H     -2.667596   -0.052592   -2.186216
H      3.721461   -0.971965   -0.480959
H      5.179923   -0.567510    0.465437
H     -2.186121    0.578270    0.784417
H     -2.641501   -0.987015    0.002382
H      3.636306   -1.933572    1.777253
H      3.975305   -0.366546    2.538565
H     -0.613431   -1.165211   -1.172603
H     -0.007877    0.483874   -0.626462
H      1.628879   -1.028543    2.711974
H      1.706177    0.445676    1.643579
H     -0.229096   -0.363506    1.719127
