57

C     -6.075435   -1.506378   -1.673281
C      2.212354    2.651198   -1.701388
C      4.400097    0.802040    2.954044
C     -4.756503   -2.234421   -1.872716
C      2.408394    1.357078   -2.423340
C      3.121346    0.176256    3.314676
C     -3.785913   -1.361240   -2.622238
C      2.472590    0.157014   -1.535144
C     -3.481699   -0.081964   -1.910264
C      3.631032    0.278116   -0.555417
C     -2.869910   -0.317847   -0.545920
C     -2.568184    0.979226    0.160025
C     -1.963288    0.782217    1.510701
C      3.729070   -0.897441    0.350529
C     -0.637433    0.010598    1.427491
C      2.588059   -1.183512    1.233039
C     -0.098376   -0.143364    2.807276
C      2.166362   -0.210404    2.247816
O      1.081053   -0.814494    2.938037
H     -6.726202   -2.155683   -1.064233
H     -5.953328   -0.554795   -1.125464
H     -6.566033   -1.294195   -2.624988
H      2.129342    3.445993   -2.498383
H      3.077172    2.964876   -1.084502
H      1.245582    2.701119   -1.158399
H      5.266110    0.112043    2.880820
H      4.697592    1.466192    3.832921
H      4.283670    1.505799    2.129372
H     -4.983192   -3.108763   -2.531959
H     -4.363274   -2.640625   -0.939346
H      1.559603    1.244328   -3.136005
H      3.323404    1.447341   -3.041316
H      2.552771    0.874414    4.005349
H      3.347444   -0.688495    4.013423
H     -2.871986   -1.939050   -2.819175
H     -4.295214   -1.082628   -3.584186
H      1.522283   -0.061692   -1.045728
H      2.681044   -0.724821   -2.211986
H     -4.375340    0.568364   -1.824087
H     -2.749574    0.478800   -2.524391
H      4.554441    0.254539   -1.207745
H      3.606786    1.261775   -0.103928
H     -3.492159   -0.933019    0.103413
H     -1.895239   -0.851379   -0.725365
H     -3.530819    1.511877    0.279528
H     -1.941221    1.651400   -0.489710
H     -1.800807    1.781089    1.961892
H     -2.692792    0.236320    2.136090
H      3.794003   -1.793986   -0.352854
H      4.733166   -0.887382    0.813784
H      0.007356    0.494286    0.698516
H     -0.911897   -1.015847    1.050911
H      1.694691   -1.332962    0.546697
H      2.737643   -2.218233    1.643868
H     -0.862759   -0.719870    3.396009
H     -0.087249    0.875764    3.269954
H      1.711366    0.684424    1.759315
