36

C      3.922470   -0.858900   -1.016249
C     -2.627623    2.733825   -0.123493
C     -1.957266   -2.259039    0.925679
C      2.698903   -1.598005   -0.508725
C     -1.967631    1.583142   -0.800885
C     -1.830553   -1.728673   -0.473690
C      1.934724   -0.730694    0.465633
C      1.511845    0.518420   -0.245762
C      0.736374    1.480411    0.607631
C     -0.538876    0.928170    1.158496
C     -1.520921    0.492656    0.135254
O     -1.074640   -0.590450   -0.572552
H      4.169331   -0.048991   -0.293448
H      4.821300   -1.526789   -1.043018
H      3.769035   -0.402627   -2.007117
H     -1.921339    3.543407    0.164583
H     -3.260785    2.388943    0.706317
H     -3.328493    3.210013   -0.867177
H     -2.358039   -3.305039    0.817259
H     -2.737172   -1.683690    1.471815
H     -1.006431   -2.230935    1.457045
H      2.090489   -1.860997   -1.374137
H      3.066488   -2.534500   -0.037331
H     -1.118441    1.928783   -1.450709
H     -2.702109    1.127086   -1.501283
H     -1.364188   -2.533230   -1.097707
H     -2.874690   -1.590094   -0.862448
H      2.611467   -0.446351    1.297550
H      1.131061   -1.326539    0.892044
H      0.990408    0.293720   -1.213399
H      2.465503    1.058042   -0.522079
H      1.391058    1.758830    1.461691
H      0.598190    2.406821    0.016035
H     -1.002870    1.618997    1.890700
H     -0.260392    0.022679    1.759474
H     -2.456185    0.161598    0.677328
