22

C      3.349666    1.005600   -0.480689
C     -1.849071   -1.911041    0.263858
C     -2.160437    1.367544   -0.285452
C      2.060314    0.597037    0.132008
C     -0.490654   -1.526848   -0.253575
C      1.019719    0.387008   -0.655975
C     -0.313197   -0.023252   -0.152144
O     -1.271965    0.550328   -0.982099
H      3.329186    0.847014   -1.568949
H      4.151251    0.388275   -0.021285
H      3.517565    2.099982   -0.308073
H     -1.929121   -2.998906    0.444617
H     -2.604184   -1.629243   -0.489712
H     -2.062327   -1.364116    1.213361
H     -1.652494    2.210736    0.229914
H     -2.767577    0.792714    0.431477
H     -2.847399    1.802258   -1.035154
H      1.966725    0.471968    1.198682
H     -0.342478   -1.856496   -1.288603
H      0.257948   -2.053922    0.376023
H      1.142630    0.519595   -1.717530
H     -0.504099    0.323768    0.877365
