36

C      4.028251    1.018338   -0.868865
C     -1.125402   -0.844502   -2.234568
C     -4.742710    1.235195    0.610492
C      3.882739    0.299455    0.454977
C     -1.372790   -1.433014   -0.882465
C     -3.583190    0.324302    0.959554
C      3.118444   -0.968000    0.261589
C      1.713125   -0.705888   -0.297435
C      0.949975    0.156403    0.645089
C     -0.405988    0.552384    0.281160
C     -1.531454   -0.384784    0.135195
O     -2.667179    0.414690   -0.058570
H      4.726170    1.878730   -0.687045
H      4.417354    0.306225   -1.611532
H      3.096270    1.441088   -1.247224
H     -1.827527   -1.239374   -3.011952
H     -0.106260   -1.063660   -2.623038
H     -1.279082    0.263995   -2.242553
H     -5.335366    0.842011   -0.246073
H     -4.395889    2.245003    0.293242
H     -5.420208    1.391628    1.472639
H      4.931246   -0.012101    0.738575
H      3.538155    0.940703    1.270185
H     -0.710625   -2.230677   -0.548831
H     -2.381613   -2.041487   -0.958401
H     -3.996337   -0.680499    1.122479
H     -3.164691    0.682486    1.921899
H      3.640428   -1.568779   -0.505621
H      2.996630   -1.554101    1.169543
H      1.805158   -0.138025   -1.267901
H      1.330554   -1.674600   -0.557769
H      1.023551   -0.233952    1.708807
H      1.582456    1.112418    0.729198
H     -0.749888    1.372846    1.032247
H     -0.336625    1.235634   -0.659908
H     -1.647680   -0.940089    1.133086
