22

C      3.450987   -0.150871    0.256135
C     -2.382493   -1.255549   -0.423076
C     -1.516476    2.008470   -0.816163
C      2.088808   -0.257028   -0.360137
C     -0.990621   -1.189413    0.129246
C      1.046188    0.195255    0.312004
C     -0.324593    0.125096   -0.229539
O     -1.053114    1.198258    0.219253
H      4.225139   -0.599160   -0.365044
H      3.657155    0.940464    0.355060
H      3.412153   -0.558533    1.283171
H     -2.378465   -1.000752   -1.485362
H     -3.050414   -0.620741    0.196701
H     -2.726187   -2.305091   -0.336707
H     -0.649071    2.412565   -1.406343
H     -2.103051    2.862112   -0.448587
H     -2.101966    1.383212   -1.497153
H      1.953256   -0.693810   -1.335225
H     -0.412544   -2.054782   -0.244394
H     -1.072494   -1.256082    1.246703
H      1.222315    0.629206    1.292563
H     -0.294513    0.187174   -1.348751
