31

C     -1.798018   -2.078923   -0.335914
C     -2.355650    2.408643    0.495367
C     -1.960745   -0.635161   -0.723800
C      2.960076   -0.024525    0.276467
C      2.137960   -0.493891    1.430282
C      2.224135    0.013919   -1.019134
C      0.726889   -0.903014    0.945595
C      0.858585    0.616545   -0.943782
C      0.133479    0.320485    0.358148
C     -1.331480    0.367535    0.165942
O     -1.605038    1.646951   -0.395200
H     -2.696998   -2.681780   -0.689580
H     -1.652875   -2.232272    0.738273
H     -0.958265   -2.553044   -0.915208
H     -2.539799    3.377290    0.022635
H     -1.782854    2.558413    1.433882
H     -3.338727    1.951549    0.716250
H     -3.080564   -0.444584   -0.807024
H     -1.607367   -0.470594   -1.774392
H      3.422344    0.949526    0.541189
H      3.818443   -0.746943    0.147534
H      2.574000   -1.369339    1.953059
H      1.958750    0.312978    2.169513
H      2.825925    0.663871   -1.718865
H      2.197468   -0.997315   -1.493124
H      0.187847   -1.306836    1.835575
H      0.917239   -1.718160    0.233984
H      0.904280    1.729832   -1.074043
H      0.274190    0.227447   -1.783531
H      0.396313    1.174963    1.037765
H     -1.809545    0.336433    1.189324
