22

C      3.037094    0.686787    0.393291
C     -2.080641    1.098431   -0.948313
C     -2.056908    0.285045    1.359947
C     -0.510591   -1.924872   -0.207985
C      1.856888    0.325523   -0.499150
C     -1.490485    0.343493   -0.029290
C     -0.288483   -0.419191   -0.404219
O      0.828281   -0.072035    0.337511
H      2.740054    1.459327    1.134722
H      3.342649   -0.228938    0.941774
H      3.895018    1.006448   -0.231773
H     -1.685603    1.157882   -1.971369
H     -2.963674    1.657016   -0.667156
H     -1.415987    0.913652    2.042833
H     -2.121959   -0.756435    1.733580
H     -3.049242    0.768780    1.361587
H     -1.202453   -2.260100   -1.032845
H      0.454037   -2.424773   -0.396888
H     -0.933957   -2.112978    0.779791
H      2.145329   -0.480000   -1.176138
H      1.571019    1.265755   -1.038228
H     -0.070385   -0.288816   -1.481682
