29

C     -3.284363    0.855855    0.325009
C     -1.912221   -2.129518   -0.644780
C     -1.791282    1.077124    0.382553
C      3.078970   -0.386051   -0.082647
C      2.573728    0.700333   -1.006225
C      2.398361   -0.222244    1.251700
C      1.139395    0.383752   -1.244780
C      1.049276    0.427482    1.155039
C      0.404574    0.253026   -0.163368
C     -1.033453   -0.061482   -0.274415
O     -1.324345   -1.282164    0.294911
H     -3.762599    1.725892    0.811425
H     -3.611581    0.690802   -0.714411
H     -3.541225   -0.050011    0.908339
H     -1.209771   -2.270190   -1.472276
H     -2.823500   -1.621879   -1.022937
H     -2.170218   -3.106729   -0.209801
H     -1.480826    1.240649    1.422725
H     -1.552995    1.990783   -0.199571
H      2.736971   -1.352915   -0.511678
H      4.181041   -0.354205    0.028062
H      2.577140    1.695972   -0.473217
H      3.144296    0.763009   -1.943249
H      2.320958   -1.201615    1.793291
H      3.063782    0.470881    1.846328
H      0.689602    0.261142   -2.211843
H      0.371018    0.032380    1.955768
H      1.113097    1.528935    1.351454
H     -1.343829   -0.059015   -1.351408
