32

C     -3.110829    2.390844    0.703895
C      2.279671   -2.915717   -3.290101
C     -2.261310   -0.358297    0.727972
C     -2.332904    1.837408    1.869120
C      2.610552   -1.737355   -2.887542
C      2.562368    0.127002   -1.316764
C      1.291571   -1.851667   -0.830647
C      2.114169    0.671734   -0.150914
C      0.849911   -1.277536    0.348201
C      0.803907    0.612172    1.943365
C     -1.431824    0.720335    1.346174
C      2.138803   -1.162487   -1.658956
C      1.263477   -0.024790    0.677031
O     -0.506634    0.320746    2.264747
H     -3.052313    3.499034    0.630249
H     -2.742132    1.975674   -0.256818
H     -4.196172    2.120541    0.759529
H      1.632084   -3.568942   -2.756554
H      2.667253   -3.307488   -4.235300
H     -2.243511   -1.309584    1.295938
H     -3.335585   -0.038915    0.668494
H     -1.903840   -0.613932   -0.311280
H     -3.012995    1.505098    2.651220
H     -1.666273    2.617218    2.289083
H      3.289995   -1.142966   -3.519989
H      3.230794    0.661419   -1.977571
H      0.949877   -2.864228   -1.084627
H      2.418424    1.668529    0.151334
H      0.188266   -1.867603    0.958558
H      1.525172    0.386634    2.719327
H      0.840729    1.713986    1.770349
H     -0.860702    1.213131    0.502478
