21

C     -2.365479   -1.220923   -0.381913
C     -0.981299    0.964030    1.214569
C     -0.897690   -0.984657   -0.356890
C      1.823178   -0.215704    0.805797
C      3.107039    0.131535    0.469354
C      1.856931    1.196708   -0.869902
C     -0.495378    0.431803   -0.100605
C      1.003030    0.474472   -0.062571
O      3.104770    0.970038   -0.526769
H     -2.960315   -0.567766    0.261612
H     -2.549616   -2.269321   -0.014762
H     -2.785684   -1.214965   -1.421672
H     -2.052646    0.877465    1.379230
H     -0.370205    0.490654    2.037280
H     -0.748841    2.069052    1.216561
H     -0.478141   -1.286388   -1.334520
H     -0.429626   -1.632062    0.413799
H      1.542270   -0.896694    1.598080
H      3.977282   -0.259476    0.985330
H      1.575491    1.860337   -1.674846
H     -0.875073    1.081862   -0.895241
