31

C     -4.061196   -1.430375   -0.893836
C      4.545793   -0.756300   -0.560181
C     -2.912765   -2.107902   -0.568511
C     -4.070930   -0.053020   -0.833776
C      4.040831   -1.476196    0.493474
C      3.728402    0.152527   -1.172356
C     -1.755724   -1.414016   -0.177692
C     -2.908282    0.614029   -0.442287
C      2.749173   -1.285437    0.917850
C      2.424635    0.333042   -0.730638
C     -0.370856    3.004530   -0.433521
C     -1.752293   -0.044036   -0.113532
C      1.879592   -0.363727    0.317125
C     -0.516085    0.710178    0.314134
C      0.533870   -0.175824    0.764983
N     -0.200926    1.742371   -0.605193
O     -0.897709    3.574916    0.693578
O      0.172843   -0.928807    1.754487
H     -4.962627   -1.926402   -1.196265
H      5.574883   -0.909656   -0.896691
H     -2.868439   -3.193639   -0.604494
H     -4.946050    0.533242   -1.078607
H      4.665284   -2.201971    0.996244
H      4.146807    0.711920   -2.003934
H     -0.894743   -1.996159    0.055369
H     -2.912844    1.693937   -0.394700
H      2.337914   -1.854377    1.756675
H      1.867546    1.058574   -1.270298
H     -0.062542    3.635501   -1.264324
H     -0.876794    1.258849    1.248491
H     -1.696767    3.094231    1.121082
