57

C     -0.754322    5.955770    0.966919
C      0.105838    4.314327   -1.462905
C      2.232513    2.478309    0.007154
C     -0.020440    4.601181    1.088937
C     -4.440859   -3.491047   -0.739778
C     -5.171594   -1.464431    0.292905
C      4.732473   -2.528561   -1.159833
C      4.730276   -1.578432    0.997545
C     -5.762423   -3.930020   -0.709915
C     -6.446121   -1.921426    0.304857
C      5.950114   -3.133995   -0.846290
C      5.909670   -2.165477    1.297676
C     -1.358649    1.549787    0.008274
C     -0.162020   -0.443733    0.431867
C     -0.263231    3.792977   -0.125933
C      0.998361    1.673920    0.162508
C     -4.161161   -2.245444   -0.231402
C      4.112319   -1.734554   -0.213764
C     -6.764441   -3.165694   -0.196489
C      6.554616   -2.956597    0.395739
C     -1.352918    0.177472    0.238917
C     -0.211059    2.321613   -0.030361
C      1.015648    0.320378    0.389555
C     -2.790219   -1.707733   -0.306903
C      2.819691   -1.083761   -0.448339
N     -8.127468   -3.572856   -0.167812
N      7.778002   -3.567788    0.735612
O     -1.892271   -2.344068   -0.865185
O      2.178175   -1.170961   -1.520976
O     -8.443925   -4.792509   -0.671413
O     -9.014581   -2.864241    0.292834
O      8.306639   -3.354869    2.002223
O      8.379959   -4.295610   -0.083074
O     -2.552863   -0.468730    0.254939
O      2.251987   -0.315942    0.577911
H     -1.072371    6.245660    1.975700
H     -1.619303    5.811225    0.321844
H     -0.041935    6.730318    0.597426
H     -0.632447    4.956958   -1.945006
H      0.217351    3.414604   -2.135574
H      1.055726    4.902990   -1.459379
H      2.504624    2.550582   -1.105782
H      3.071151    1.887426    0.427556
H      2.253566    3.450136    0.458126
H      0.927868    4.765745    1.518519
H     -0.639026    4.114549    1.959875
H     -3.627078   -4.097949   -1.134325
H     -4.888752   -0.504152    0.675021
H      4.266401   -2.685121   -2.147416
H      4.237277   -0.948408    1.742026
H     -5.979071   -4.916969   -1.121667
H     -7.218869   -1.262071    0.733376
H      6.460585   -3.761302   -1.564181
H      6.319561   -1.970665    2.298532
H     -2.357753    1.994849   -0.145205
H     -0.141902   -1.507142    0.610465
H     -1.461321    3.941484   -0.197752
