31

C     -4.183494   -0.757295    0.015495
C     -2.153225    1.321123   -0.776985
C      3.637586   -0.265481   -1.274705
C      2.791231    1.433608    1.095634
C      2.342327   -1.583965    1.111429
C     -2.777388   -0.771609    0.453511
C     -0.456336   -0.303671    0.063831
C     -1.815450   -0.107879   -0.540917
C      0.661856    0.199183   -0.722243
O      0.624546    0.746848   -1.787355
Si     2.337824   -0.051097    0.040729
H     -4.460167   -1.658324   -0.585484
H     -4.845662   -0.799214    0.917007
H     -4.498192    0.121332   -0.572829
H     -2.841151    1.413409   -1.658657
H     -2.593758    1.808466    0.124514
H     -1.245197    1.924885   -1.019207
H      4.570887   -0.568171   -0.756306
H      3.345160   -1.061536   -1.966795
H      3.825511    0.698002   -1.808659
H      3.185105    2.250853    0.474354
H      1.861860    1.805042    1.612712
H      3.496554    1.077364    1.861659
H      1.294418   -1.674315    1.518928
H      2.479117   -2.475574    0.473322
H      3.057410   -1.506401    1.941438
H     -2.640862   -0.345600    1.467770
H     -2.410660   -1.835739    0.536664
H     -0.316257   -1.410572    0.192379
H     -0.421127    0.141766    1.069014
H     -1.852464   -0.662272   -1.500245
