26

C     -0.420789   -2.146619   -0.814435
C      3.392706    0.930858    0.420239
C      2.720773    1.520528   -0.638660
C      2.849599   -0.165020    1.071259
C      1.520903    0.985452   -1.007729
C      1.634171   -0.672328    0.664153
C     -2.070579   -0.463728    1.048274
C     -3.123203    0.374493    1.414367
C     -2.248496    1.106665   -0.471440
C     -0.373274   -0.646486   -0.835934
C      0.930662   -0.103537   -0.397949
C     -1.513883   -0.017511   -0.130046
N     -3.202268    1.331057    0.452646
H      0.362710   -2.507742   -1.519269
H     -0.217236   -2.592204    0.155415
H     -1.392024   -2.454363   -1.249439
H      4.339637    1.365521    0.699644
H      3.169472    2.386005   -1.138271
H      3.404021   -0.608152    1.903374
H      0.995870    1.444206   -1.833223
H      1.199956   -1.520064    1.157394
H     -1.758319   -1.326794    1.619840
H     -3.766664    0.309984    2.276785
H     -2.055637    1.702621   -1.368243
H     -0.482897   -0.344463   -1.919188
H     -3.895211    2.111621    0.440434
