28

C      3.742471    0.948613   -0.037236
C      1.643152   -1.082898    0.506508
C      2.448954    0.881633   -0.814022
C     -2.848224   -0.023867    1.308341
C     -3.480912   -0.093918   -0.065249
C     -1.463067   -0.594151    1.036513
C     -2.354680   -0.256943   -1.063916
C      1.337394    0.309497    0.031445
C      0.117139    0.245440   -0.810582
N     -1.139390   -0.176564   -0.297507
O      0.215618    0.579268   -2.017370
H      3.978858   -0.039507    0.378779
H      4.554387    1.247455   -0.737877
H      3.655850    1.675357    0.779803
H      1.985035   -1.088777    1.561853
H      2.467980   -1.468382   -0.157273
H      0.757707   -1.718151    0.332088
H      2.160603    1.920095   -1.080009
H      2.563058    0.255219   -1.714594
H     -3.326202   -0.680362    2.041925
H     -2.780360    1.006714    1.698742
H     -4.058806    0.840716   -0.248999
H     -4.183148   -0.934352   -0.112204
H     -0.778264   -0.264772    1.814753
H     -1.516865   -1.707979    1.061014
H     -2.413110    0.521011   -1.851834
H     -2.461232   -1.253143   -1.562293
H      1.176055    0.952747    0.929667
