26

C     -0.318917   -2.291855    0.267894
C      3.286329    1.117586   -0.398757
C      2.688302    1.436498    0.800353
C      2.748781    0.166623   -1.253811
C     -3.232250    1.349594    0.085254
C      1.525961    0.768528    1.119689
C      1.589031   -0.471713   -0.891237
C     -2.181077    0.911303    0.869970
C     -3.173395    0.580025   -1.055713
C     -0.295282   -0.856928    0.716055
C      0.961693   -0.182200    0.296315
C     -1.497733   -0.099033    0.226390
N     -2.130871   -0.275735   -0.947136
H     -0.841530   -2.909926    1.054097
H      0.732997   -2.657154    0.273760
H     -0.735669   -2.444209   -0.734806
H      4.210547    1.642376   -0.662561
H      3.128110    2.188897    1.459866
H      3.259074   -0.043956   -2.180878
H     -3.951641    2.126043    0.306047
H      1.053052    1.020880    2.068189
H      1.138030   -1.226470   -1.541324
H     -1.926320    1.308191    1.860297
H     -3.871944    0.674627   -1.889948
H     -0.306648   -0.859081    1.824158
H     -1.858630   -0.972909   -1.672162
