26

C      0.675554   -2.225687    0.297109
C     -3.239294    0.548248   -1.174130
C     -2.981183    0.894071    0.132404
C     -2.354194   -0.249981   -1.882543
C      2.751003    1.881869    0.887533
C     -1.828909    0.435875    0.729514
C     -1.210091   -0.689281   -1.248751
C      1.654056    1.208183    1.392002
C      3.140807    1.202355   -0.240542
C      0.312101   -0.829502    0.756216
C     -0.908594   -0.370878    0.053678
C      1.400586    0.139240    0.565586
N      2.311155    0.166469   -0.402479
H      1.491227   -2.635413    0.928618
H     -0.224667   -2.859520    0.501110
H      0.937088   -2.243132   -0.765261
H     -4.140826    0.902219   -1.653143
H     -3.697456    1.525929    0.668771
H     -2.609473   -0.488084   -2.902909
H      3.189931    2.768051    1.322362
H     -1.642810    0.717373    1.755700
H     -0.540908   -1.302797   -1.810555
H      1.115937    1.505135    2.287328
H      3.966489    1.462849   -0.874881
H      0.095528   -0.907159    1.854377
H      2.336940   -0.556434   -1.177113
