63

C      1.276827    0.156526   -1.942456
C     -0.994543    4.294383   -2.987598
C     -2.913792    1.781140    2.842007
C      5.034563   -1.353181    1.607957
C     -0.895420    3.094224   -3.638075
C     -1.006789    4.326759   -1.624811
C     -3.549073    1.387285    1.688959
C     -1.538249    1.810729    2.850596
C      4.489388    0.036952    1.578822
C      4.644696   -2.041097    0.318040
C     -3.516647   -3.294150   -0.111907
C     -3.242346   -2.466039    1.120244
C     -0.807124    1.907280   -2.897362
C     -0.919150    3.145175   -0.918705
C     -2.820407    1.033873    0.578163
C     -0.830144    1.452513    1.726494
C      3.150307    0.212276    0.957810
C      3.118752   -2.155557    0.392739
C     -2.556465   -2.800288   -1.164909
C     -1.783816   -2.056013    0.851532
C      1.129554   -0.789302    0.279784
C      0.728240    0.400327   -0.517959
C     -0.816351    1.893398   -1.549405
C     -1.436691    1.058082    0.571004
C     -1.475824   -0.479505   -1.227808
C     -0.739994    0.668270   -0.663486
N      2.603027   -0.849629    0.226512
N     -1.868128   -1.650728   -0.528277
O     -1.839210   -0.503228   -2.459911
H      0.707615   -0.578865   -2.495823
H      2.301130   -0.273901   -1.755578
H      1.423659    1.127560   -2.418938
H     -1.064597    5.231655   -3.554366
H     -3.491081    2.065662    3.736578
H      6.136894   -1.305424    1.732679
H      4.569700   -1.974374    2.427139
H     -0.881947    3.012805   -4.708134
H     -1.085192    5.294071   -1.099056
H     -4.623168    1.362388    1.674599
H     -1.048791    2.126224    3.779476
H      4.407212    0.353544    2.663171
H      5.265416    0.715798    1.161059
H      5.138233   -2.998281    0.148898
H      4.825506   -1.310901   -0.525705
H     -4.584097   -3.214813   -0.440179
H     -3.294123   -4.360539    0.163892
H     -3.322911   -3.052868    2.054740
H     -3.918338   -1.591784    1.096183
H     -0.716956    1.002077   -3.451632
H     -0.933175    3.250520    0.146544
H     -3.386303    0.731463   -0.305654
H      0.235817    1.489987    1.763836
H      2.411276    0.615200    1.715724
H      3.258179    1.088791    0.238375
H      2.798047   -2.679397    1.308542
H      2.840583   -2.759001   -0.502556
H     -3.081345   -2.462177   -2.084078
H     -1.761170   -3.542796   -1.368821
H     -1.452711   -1.312660    1.562483
H     -1.199782   -3.001367    0.970336
H      0.815857   -1.756336   -0.167064
H      0.796311   -0.794937    1.333984
H      1.289058    1.282202   -0.158646
