63

C      1.111065    1.354136    1.645141
C     -1.598252    5.069409    0.125437
C     -3.841383   -0.636685    2.799157
C      5.517821   -1.258467   -0.558879
C     -2.090526    4.269655    1.154757
C     -0.864866    4.480519   -0.869054
C     -2.532865   -0.678671    3.212233
C     -4.091839   -0.133947    1.554769
C      4.462362   -1.657088   -1.583461
C      5.051502   -0.086243    0.229616
C     -3.011893   -2.455201   -2.395491
C     -2.606481   -3.098303   -1.085596
C     -1.827813    2.915720    1.143350
C     -0.617028    3.101601   -0.848194
C     -1.488640   -0.224325    2.393103
C     -3.077150    0.305085    0.764030
C      3.106045   -1.737455   -0.981434
C      3.626636   -0.345748    0.773686
C     -1.771341   -1.671600   -2.785785
C     -1.378397   -2.315657   -0.642912
C      1.332017   -0.511315   -0.077501
C      0.659807    0.713050    0.363330
C     -1.088797    2.305208    0.145080
C     -1.726048    0.275264    1.159687
C     -1.214542    0.222465   -1.140233
C     -0.822487    0.807908    0.165417
N      2.741372   -0.423150   -0.334027
N     -1.411682   -1.128522   -1.450487
O     -1.408281    1.027575   -2.121947
H      1.903544    2.149350    1.498185
H      0.273200    1.957958    2.102893
H      1.508673    0.666281    2.404679
H     -1.806938    6.138993    0.129647
H     -4.668133   -0.980543    3.414106
H      5.755172   -2.151824    0.076727
H      6.432901   -0.990934   -1.102655
H     -2.661585    4.754194    1.921660
H     -0.479718    5.081082   -1.669010
H     -2.324299   -1.073189    4.188459
H     -5.130793   -0.102924    1.230259
H      4.516487   -1.017435   -2.479482
H      4.744092   -2.677304   -1.915653
H      4.990056    0.794415   -0.429852
H      5.752990    0.044445    1.084476
H     -3.855551   -1.755089   -2.143000
H     -3.296704   -3.226685   -3.115883
H     -2.285185   -4.151081   -1.214088
H     -3.393966   -3.001747   -0.325676
H     -2.222079    2.332260    1.961605
H     -0.022492    2.714118   -1.654483
H     -0.490032   -0.280393    2.738327
H     -3.374802    0.692554   -0.219355
H      3.095636   -2.465017   -0.166542
H      2.379874   -1.952879   -1.779017
H      3.489049    0.441171    1.504242
H      3.719700   -1.365620    1.243355
H     -2.006335   -0.888550   -3.497746
H     -1.004974   -2.397995   -3.074942
H     -1.330220   -2.187081    0.431606
H     -0.440866   -2.863835   -0.973185
H      1.182393   -1.397503    0.578667
H      0.882844   -0.817101   -1.067018
H      1.029745    1.492691   -0.435099
