45

C     -3.872603   -3.825878    1.528630
C      6.926641    2.069586   -1.798143
C      6.214261    2.862034   -0.925285
C      6.470078    0.820493   -2.166959
C     -3.694132    1.874699    0.176929
C     -3.883025    1.931773   -1.177163
C      5.023682    2.408167   -0.405986
C      5.271624    0.404864   -1.622407
C     -4.024877    0.685993    0.825838
C      2.423538   -0.136717   -0.881879
C      2.813798    1.070152    1.068739
C      1.212466   -0.602331   -0.400668
C      1.613104    0.621879    1.572241
C     -4.387918    0.837998   -1.876597
C     -4.872242   -1.652672    0.835772
C     -3.614651   -2.516349    0.833675
C      4.518490    1.154199   -0.746343
C      3.257998    0.701621   -0.182356
C      0.771357   -0.234158    0.845687
C     -4.523586   -0.394141    0.134805
C     -1.446098   -1.395283    0.816976
N     -4.694316   -0.300498   -1.188241
N     -0.442133   -0.638282    1.434574
O     -1.333474   -1.780330   -0.348162
O     -2.620928   -1.748764    1.492549
H     -4.459872   -3.679854    2.450095
H     -2.947220   -4.382364    1.662057
H     -4.516776   -4.429223    0.835931
H      7.876410    2.379276   -2.240311
H      6.605323    3.831689   -0.662076
H      7.039784    0.202935   -2.856608
H     -3.305841    2.711346    0.725264
H     -3.649132    2.827450   -1.764358
H      4.456605    3.013532    0.275126
H      4.877075   -0.582729   -1.892500
H     -3.870849    0.654014    1.896776
H      2.743664   -0.448914   -1.876609
H      3.420630    1.726935    1.672382
H      0.648071   -1.249692   -1.024192
H      1.270386    0.920964    2.565189
H     -4.524260    0.918829   -2.945736
H     -5.170072   -1.378274    1.860751
H     -5.701414   -2.172168    0.326700
H     -3.278106   -2.732719   -0.190393
H     -0.621464   -0.349087    2.441322
