54

C     -8.412432   -0.882979    2.460722
C      6.933669   -3.146627    0.300948
C     -7.154807   -0.084222    2.548524
C     -5.971221   -0.765505    1.906095
C     -6.267417   -1.044844    0.446178
C     -5.111244   -1.771604   -0.247265
C     -3.935989   -0.988633   -0.211314
C      3.899399    0.691197    0.353444
C     -2.914420   -0.288538   -0.165815
C      2.663123   -0.090010    0.290368
C      4.488136    1.420691   -0.741927
C     -1.682084    0.584067   -0.121663
C      1.366510    0.562674    0.018638
C      5.056658    0.808474   -1.954842
C     -1.264343    1.071889   -1.240096
C      1.187997    1.144245   -1.328677
C      6.286517   -0.043598   -1.775883
C     -0.107245    1.930191   -1.463775
C      6.199908   -1.267452   -1.035016
O     -0.111187    3.045728   -0.606406
O      5.118609   -1.904371   -0.852357
O      7.298730   -1.941596   -0.399515
H     -8.150558   -1.943936    2.201855
H     -9.125298   -0.539314    1.669091
H     -8.955369   -0.975484    3.424876
H      7.870617   -3.585058    0.679395
H      6.203431   -2.891448    1.105543
H      6.411000   -3.788130   -0.428414
H     -7.336524    0.888698    2.093289
H     -6.883800    0.106660    3.616767
H     -5.719038   -1.705428    2.430869
H     -5.115383   -0.075117    2.008064
H     -6.259728   -0.008841   -0.029241
H     -7.248315   -1.435585    0.258160
H     -5.415404   -1.920937   -1.310656
H     -4.901131   -2.771907    0.251854
H      4.655370    0.052664    0.926482
H      3.736186    1.500880    1.193019
H      2.571555   -0.660154    1.281762
H      2.820460   -0.942713   -0.438457
H      5.398391    2.033926   -0.278843
H      3.856000    2.306390   -1.042780
H     -1.230810    0.807176    0.809995
H      0.569195   -0.260305    0.154933
H      1.093811    1.310383    0.823898
H      5.369915    1.612104   -2.693974
H      4.266266    0.239425   -2.546551
H     -1.910049    0.821656   -2.141420
H      0.961549    0.216306   -1.998620
H      2.019858    1.629519   -1.798036
H      7.016295    0.638118   -1.218057
H      6.731926   -0.196072   -2.800211
H     -0.117317    2.358473   -2.491785
H     -0.749967    2.978743    0.106824
