40

C      4.981276    1.702536    0.119643
C      5.567579   -0.677768    0.287766
C     -5.888699    0.194365    0.677568
C     -5.423960   -1.033848    1.052359
C      2.571793   -0.744716    0.377785
C      1.207834   -0.180559    0.726661
C     -3.740500    0.818778   -0.019186
C     -0.938753    0.426167   -0.462685
C      4.644523    0.424914   -0.058945
C     -5.054182    1.140792    0.135581
C     -3.179205   -0.419571    0.339004
C     -4.054313   -1.336788    0.878361
C     -1.757787   -0.644223    0.123365
C      3.299520    0.085533   -0.624428
C      1.263200    1.229376   -1.197292
C      0.513155    0.107004   -0.584749
O     -5.565892    2.362397   -0.226662
O     -3.626730   -2.580124    1.266925
O     -1.211071   -1.707505    0.416485
O      0.655089    2.079179   -1.880917
O      0.673356   -0.981842   -1.468079
O      2.625767    1.283689   -0.979031
H      5.969070    1.916547    0.533949
H      4.286740    2.486645   -0.142662
H      6.235313   -0.883419   -0.592429
H      5.013872   -1.590889    0.594013
H      6.256818   -0.369116    1.115561
H     -6.960650    0.435823    0.812047
H     -6.057995   -1.786407    1.477114
H      2.424652   -1.771287    0.019877
H      3.141522   -0.833249    1.339224
H      1.426564    0.812364    1.221763
H      0.655939   -0.828738    1.392516
H     -3.050064    1.545873   -0.446023
H     -1.315838    0.591899   -1.500864
H     -1.075620    1.397132    0.065859
H      3.510170   -0.483032   -1.565928
H     -5.940464    2.592607   -1.124276
H     -2.735533   -2.951058    1.220882
H      0.653505   -1.829480   -0.988918
