39

C      5.559695   -1.882530   -0.397477
C      5.241427    0.538213    0.318313
C     -5.555383   -0.828098   -0.072743
C     -5.587261    0.363027   -0.703703
C      3.364216   -0.811749   -0.492021
C      1.212715   -0.258417    0.438572
C     -0.844036    1.023381    0.508727
C     -3.265109   -0.484613    0.499857
C      4.653720   -0.706508   -0.200127
C      0.015167    0.171329   -0.370016
C     -4.397814   -1.260282    0.532245
C      2.391752    0.302928   -0.327806
C     -3.304229    0.756570   -0.159307
C     -4.454058    1.204977   -0.770320
C     -2.076209    1.522633   -0.165849
C      0.524122    0.934159   -1.512676
O     -4.339359   -2.484257    1.188933
O     -4.562512    2.404294   -1.430511
O     -2.013797    2.626981   -0.738531
O     -0.132705    1.647040   -2.295976
O      1.895770    0.722990   -1.576266
H      5.307914   -2.378525   -1.358098
H      5.285500   -2.605890    0.408805
H      6.610863   -1.593061   -0.340352
H      5.138729    0.601868    1.426025
H      4.825036    1.461378   -0.130367
H      6.337277    0.553629    0.118150
H     -6.421815   -1.506468   -0.004070
H     -6.482372    0.716677   -1.181901
H      2.968711   -1.747018   -0.871958
H      1.208708    0.179345    1.473218
H      1.271355   -1.352565    0.569952
H     -1.065805    0.581074    1.496200
H     -0.208360    1.936902    0.742537
H     -2.357487   -0.827589    0.971418
H     -0.509557   -0.721374   -0.763371
H      2.827642    1.189952    0.162168
H     -5.132212   -3.113498    1.256347
H     -3.930237    3.123094   -1.596649
