37

C     -4.539090    1.115335    0.375006
C     -2.181523   -0.744128   -0.051052
C     -3.520328   -0.893278   -0.553517
C     -1.745606    0.478509    0.645514
C      4.949434   -0.307550   -1.486481
C      4.699830   -1.221721   -0.480810
C      0.740828    1.033396    0.741315
C      3.255765    1.102754   -0.591188
C     -5.837634   -0.523159   -1.037222
C     -4.567463   -0.126553   -0.402285
C     -0.292676    0.303635    1.086073
C      4.237006    0.847585   -1.547442
C      3.011124    0.190886    0.406846
C      3.728540   -0.977748    0.472451
C      1.955941    0.512329    1.398505
C      0.186603   -0.730298    1.987083
O     -5.938897   -1.570752   -1.714587
O      4.491128    1.760114   -2.557148
O      3.442724   -1.859955    1.495852
O     -0.562507   -1.619940    2.516114
O      1.547737   -0.567346    2.149851
H     -4.580720    0.919414    1.480154
H     -3.816302    1.872238    0.068203
H     -5.542595    1.633050    0.196940
H     -2.022123   -1.597522    0.702826
H     -1.394265   -1.016585   -0.833860
H     -3.720255   -1.803910   -1.176693
H     -1.661959    1.301504   -0.133360
H     -2.278870    0.777739    1.539616
H      5.719097   -0.517156   -2.229176
H      5.246344   -2.138971   -0.409806
H      0.694253    1.911108    0.055363
H      2.695343    2.030224   -0.653781
H     -6.729692    0.077041   -0.941060
H      2.375929    1.341660    2.020555
H      4.025357    1.758319   -3.457243
H      3.929521   -2.750268    1.616176
