39

C     -3.353531    2.236893    1.230524
C      6.098917    0.233306   -0.110950
C      5.398918    1.313912    0.364380
C      5.453101   -0.993801   -0.234494
C      4.074905    1.169423    0.710375
C      4.113628   -1.113053    0.122347
C      1.985507   -0.180906    0.972743
C      1.060276    0.086688   -0.185409
C     -2.746329    0.965860    0.686538
C      3.411569   -0.021710    0.600985
C     -3.831860    0.014698    0.186939
C     -3.143936   -1.285990   -0.143587
C     -1.935787   -1.108068   -1.011024
C     -1.172950    0.144602   -0.762414
O     -4.742124   -0.248707    1.210174
O     -4.063845   -2.095964   -0.801070
O     -2.311866   -1.235173   -2.368362
O     -0.245472   -0.086180    0.257079
O     -1.932817    1.233299   -0.415987
H     -4.459852    2.207722    1.023281
H     -2.964286    3.124115    0.704579
H     -3.153205    2.378850    2.315179
H      7.141036    0.356737   -0.380831
H      5.870099    2.292769    0.475650
H      6.021998   -1.821672   -0.608085
H      3.550125    2.036200    1.081046
H      3.654488   -2.091744    0.007665
H      1.698151    0.502051    1.791588
H      1.778640   -1.227870    1.321520
H      1.293985   -0.525889   -1.072808
H      1.151656    1.149751   -0.514452
H     -2.193651    0.400672    1.480235
H     -4.318605    0.471218   -0.700882
H     -2.852185   -1.745969    0.834732
H     -1.260968   -1.971855   -0.820434
H     -0.630550    0.420091   -1.714439
H     -5.665490    0.005979    0.960440
H     -4.379822   -2.793052   -0.153095
H     -2.397867   -2.197230   -2.590041
