41

C      5.160267   -0.124444    0.685290
C      5.607895   -1.916150   -1.124681
C      2.594426    0.262789   -0.340978
C      3.505442   -0.739535   -0.969375
C      1.297334   -0.407864    0.147870
C     -5.836081    0.320617   -0.435541
C     -5.179889    1.071965    0.509412
C     -0.864821    0.192066    1.340581
C     -3.863824   -0.890777   -0.792200
C      4.714212   -0.919680   -0.483524
C      0.459979    0.658210    0.738561
C     -5.182208   -0.676707   -1.102438
C     -3.157032   -0.147162    0.164367
C     -3.862243    0.842145    0.804969
C     -1.765704   -0.450323    0.410250
C      0.059034    1.602991   -0.360812
O     -5.865750   -1.421192   -2.050878
O     -3.273876    1.636216    1.763232
O     -1.279778   -1.407577   -0.287415
O      0.296550    1.356350   -1.561691
O     -0.595055    2.784718   -0.059900
H      4.548773   -0.305217    1.592512
H      6.227964   -0.380381    0.942844
H      5.122229    0.947630    0.436776
H      6.669607   -1.607578   -1.014227
H      5.314635   -1.981687   -2.197751
H      5.421112   -2.925571   -0.701029
H      2.448770    1.073902   -1.032116
H      3.084562    0.680266    0.578255
H      3.191177   -1.330450   -1.825221
H      1.527492   -1.253686    0.790000
H      0.790929   -0.806582   -0.784815
H     -6.895175    0.551405   -0.632272
H     -5.705681    1.878763    1.050206
H     -0.619887   -0.518009    2.190856
H     -1.251438    1.085969    1.854275
H     -3.349425   -1.684265   -1.325993
H      0.997779    1.197150    1.522485
H     -6.343078   -2.255472   -1.748540
H     -3.779580    2.355950    2.228424
H     -0.369644    3.651209   -0.567644
