50

C      5.273211   -0.746004    0.655144
C      4.843740    1.502651   -0.166356
C     -3.432608    1.700674   -0.791907
C     -3.316995    1.086418    1.555007
C     -1.397188   -1.557915    1.594458
C     -3.214208   -1.452038   -1.174960
C     -3.839300   -0.601740   -0.099976
C     -1.870745   -2.006531   -0.826389
C     -0.247072    2.328449   -0.300009
C      4.503745    0.073708   -0.382861
C     -0.476759    1.078537    0.475478
C      3.072582   -0.274333   -0.252886
C      0.685010    0.172935    0.152860
C      0.294948   -1.062552   -0.021143
C      2.107766    0.570838    0.033184
C      2.682581   -1.688295   -0.459932
C      1.304056   -2.074002   -0.343912
C     -1.590553    0.281436   -0.110907
C     -2.964039    0.625655    0.203750
C     -1.161725   -1.139296    0.174786
O      0.074706    2.200168   -1.469875
O      2.463405    1.916447    0.232281
O      3.573842   -2.541679   -0.737673
O      0.902956   -3.259644   -0.507483
H      6.202139   -0.213841    0.862561
H      5.554372   -1.719992    0.191987
H      4.618903   -0.870218    1.523244
H      5.970304    1.611506   -0.284116
H      4.668105    1.848638    0.879928
H      4.431433    2.206614   -0.918449
H     -2.785870    1.656555   -1.708359
H     -4.463541    1.517874   -1.122423
H     -3.274082    2.710549   -0.361308
H     -3.814848    0.290221    2.185320
H     -2.505371    1.492587    2.168860
H     -4.099227    1.903825    1.521661
H     -0.472411   -2.036374    2.037321
H     -1.656062   -0.746202    2.280615
H     -2.141997   -2.394637    1.583349
H     -3.210043   -0.844913   -2.103981
H     -3.899032   -2.306623   -1.343080
H     -4.814039   -0.255912   -0.487452
H     -4.031885   -1.124173    0.839156
H     -1.874429   -3.061507   -0.517150
H     -1.250917   -1.967029   -1.770224
H     -0.347703    3.312812    0.107788
H      4.836978   -0.210834   -1.413270
H     -0.535133    1.324011    1.520599
H     -1.458772    0.375838   -1.235666
H      2.081769    2.367340    1.077018
