40

C     -0.118365    2.144819   -0.980637
C      6.225720    0.631202    1.273571
C     -4.877472   -0.136231    2.009732
C     -5.372568   -1.117009    1.177700
C     -3.754601    0.598829    1.687838
C     -4.713701   -1.356923   -0.006892
C      1.575884   -0.675310    0.929692
C      2.835193   -0.379865   -1.034814
C      2.681960   -0.345415    1.684816
C      3.959291   -0.045774   -0.308890
C      1.632587   -0.698342   -0.439082
C      3.868100   -0.032477    1.055763
C     -3.134651    0.322869    0.498935
C     -3.590523   -0.660674   -0.386895
C      0.494686   -1.040331   -1.308458
C     -1.941573    1.161656    0.250809
C     -1.854372   -0.866013   -2.088304
C     -0.685774   -0.249507   -1.464974
N     -3.038353   -1.029106   -1.637859
N     -0.929042    0.967545   -0.742191
O     -1.858590    2.140021    1.028500
O     -1.714135   -1.379516   -3.390696
O      4.983277    0.299980    1.811690
O      0.424544   -0.059086   -2.424063
H      0.567405    1.970140   -1.822343
H     -0.796702    2.978967   -1.266822
H      0.463033    2.439573   -0.082963
H      6.730735    1.310907    2.021019
H      6.887572   -0.268482    1.141456
H      6.200200    1.183714    0.332358
H     -5.421611    0.027995    2.937617
H     -6.242840   -1.699809    1.407883
H     -3.400929    1.350446    2.357094
H     -5.077681   -2.124150   -0.687104
H      0.620558   -0.928839    1.384088
H      2.907857   -0.390229   -2.113950
H      2.616834   -0.332513    2.779553
H      4.855070    0.189107   -0.835041
H      0.497257   -2.087572   -1.672338
H     -2.504283   -1.814600   -3.854052
