47

C     -5.246002   -1.793740   -1.006941
C     -4.949296   -0.529776   -1.436498
C     -4.259304   -2.639049   -0.508321
C     -3.652515   -0.063905   -1.383070
C     -2.976360   -2.129983   -0.473847
C      2.772497   -1.718346   -0.520225
C      4.012754    0.218272    0.066264
C      3.724949   -2.499570    0.123565
C      4.954066   -0.561967    0.703218
C     -0.875214    1.640721    2.185351
C      0.467365    0.949796    2.152277
C     -1.134036    2.500147   -0.109829
C     -1.235733   -0.421730   -0.815301
C     -2.649050   -0.865408   -0.898177
C      2.929022   -0.360162   -0.541161
C      4.803983   -1.920831    0.728119
C     -1.523143    1.358543    0.824289
C      0.477742    0.298252    0.762940
C      0.153425    2.163748   -0.746376
C      1.178312    1.271877   -0.149827
C      1.941463    0.506282   -1.213442
Br     6.094993   -3.015757    1.603828
N     -0.876206    0.190190    0.379669
O      0.383526    2.661094   -1.845691
O      2.609700    1.458525   -2.019450
H     -6.248620   -2.160287   -1.045803
H     -5.746776    0.101495   -1.819672
H     -4.518453   -3.633174   -0.175073
H     -3.438463    0.942406   -1.729104
H     -2.196550   -2.784717   -0.084869
H      1.921071   -2.224887   -0.993013
H      4.177584    1.304281    0.073567
H      3.569293   -3.569526    0.120453
H      5.809299   -0.107926    1.182784
H     -1.522848    1.214795    2.976321
H     -0.751888    2.724502    2.267834
H      1.285431    1.695306    2.249105
H      0.595580    0.210505    2.950351
H     -1.942889    2.601881   -0.854383
H     -1.039086    3.420189    0.523872
H     -0.559217   -1.292486   -1.007836
H     -1.083663    0.263418   -1.673916
H     -2.619948    1.290295    0.951800
H      1.026671   -0.659882    0.827912
H      1.896895    1.856373    0.486798
H      1.282121   -0.065867   -1.865415
H      2.977518    2.176083   -1.454434
