46

C      7.807399    0.590649    1.704036
C     -5.468668    0.015667   -0.916562
C     -5.296961   -0.848195    1.284510
C      3.480486   -0.378348    1.109449
C      1.908921    0.269076   -0.600465
C     -2.568438    0.370569   -0.945273
C     -4.685435   -0.405601    0.118638
C     -6.845747   -0.006663   -0.784280
C     -6.673671   -0.866984    1.407711
C      4.504786    0.161913    1.714691
C      1.047513   -0.918648   -0.828111
C     -3.209409   -0.432035    0.105755
C      5.428065    0.889690   -0.351409
C     -7.478648   -0.440984    0.361592
C      5.547645    0.838727    0.955983
C      4.326450    0.319974   -1.124967
C     -0.404901   -0.894236   -0.942005
C      3.264989   -0.369382   -0.347988
Br    -7.889563    0.591681   -2.258287
Br    -7.538709   -1.469445    2.996482
Br     4.694270    0.095837    3.627426
Br     6.816979    1.787370   -1.321576
N     -1.133101    0.330491   -0.837635
N      1.763724   -1.982258   -0.911981
O     -2.809974    0.108438    1.352449
O     -8.872646   -0.457714    0.480460
O      3.778879    1.366210   -1.900332
O     -1.014241   -1.993447   -1.137542
O      6.649541    1.420303    1.602799
O      3.087521   -1.708974   -0.768819
H      8.167745    0.299168    0.685593
H      7.539652   -0.352384    2.217852
H      8.586081    1.126573    2.286433
H     -4.974197    0.357649   -1.818634
H     -4.729737   -1.196476    2.144736
H      2.737283   -0.866985    1.718401
H      1.937995    0.867548   -1.535954
H      1.575368    0.870435    0.262644
H     -2.853814    1.458678   -0.853841
H     -2.824431    0.098711   -1.983878
H     -2.869732   -1.482855    0.125141
H      4.739333   -0.408974   -1.881417
H     -0.531659    1.188019   -0.677119
H     -2.945318    1.094785    1.365489
H     -9.403558   -0.134560   -0.317448
H      3.631933    1.096987   -2.833174
