48

C     -2.346323   -0.254784    1.144581
C     -2.724981    0.328060   -1.224105
C      2.052834   -2.169788    0.877668
C      1.025967    2.708557    2.959063
C      0.988013    1.332113    3.023648
C      1.881723    0.041029   -1.984773
C     -1.383973   -2.758183    0.059631
C     -0.277519   -2.878170    1.057252
C      1.219936   -1.222266   -1.502150
C      0.171531    2.541078    0.764125
C     -0.225203    1.077825   -1.610586
C      0.862883    1.698253   -3.670006
C      0.798614    0.959640   -2.415034
C      0.607188    3.327176    1.800309
C      0.121009    1.162038    0.796448
C      0.543496    0.550634    1.963960
C     -1.171082   -1.524036   -0.729952
C     -1.720651   -0.244668   -0.215013
C      0.608608   -1.646803    0.882690
C      0.237836   -1.013155   -0.400858
C     -0.344754    0.347027   -0.314446
O      1.856062    1.570722   -4.429561
O      0.631555    4.733340    1.696996
O      0.499549   -0.832022    2.013775
H     -3.447630   -0.054284    1.116206
H     -1.922238    0.634433    1.698031
H     -2.216809   -1.182882    1.706300
H     -2.879029    1.415490   -0.968153
H     -2.357478    0.208723   -2.265777
H     -3.684094   -0.191927   -1.053276
H      2.128912   -3.144852    0.369692
H      2.763782   -1.413449    0.540406
H      2.300526   -2.378442    1.958119
H      1.366563    3.336437    3.767612
H      1.308795    0.821759    3.915530
H      2.574077   -0.218325   -2.795028
H      2.479760    0.535115   -1.194024
H     -2.406620   -2.834847    0.524671
H     -1.355610   -3.629705   -0.659750
H     -0.647630   -2.953285    2.112832
H      0.282557   -3.818617    0.877623
H      2.011093   -1.957132   -1.284773
H      0.664693   -1.639703   -2.392402
H     -0.161318    3.031106   -0.156597
H     -1.058240    1.732170   -1.857230
H      0.081187    2.369593   -3.994009
H     -1.248848   -1.626615   -1.838399
H      1.511281    5.125616    1.328734
