36

C      3.742535    0.742047    0.037290
C      3.232345    0.731398   -1.242656
C     -2.607661   -1.686276    0.494715
C     -2.606100   -0.172723    0.428045
C     -0.684675    0.103012    1.851319
C     -0.812402   -0.494239   -1.920991
C      2.948229    0.404490    1.119758
C      1.917334    0.382636   -1.469744
C      0.714137   -0.298453    1.934173
C     -1.613417   -2.103308   -0.607457
C      1.641997    0.059838    0.876034
C      1.104699    0.042094   -0.422365
C     -1.277487    1.807123    0.197134
C     -1.163497    0.357409    0.439307
C     -0.285398   -0.361652   -0.548242
O      3.466716    0.420887    2.387750
O      1.400594    0.371969   -2.743972
O      1.131491   -0.950324    2.908707
O     -0.862532    2.648722    1.019692
O     -1.856072    2.269412   -0.965545
O     -1.970655   -1.279233   -1.690373
O     -0.368683   -1.730331   -0.161500
H      4.762670    1.008418    0.248530
H      3.878737    1.003652   -2.094966
H     -3.599387   -2.018209    0.138950
H     -2.295159   -2.100246    1.448246
H     -3.117159    0.199776    1.337943
H     -3.164523    0.160476   -0.457312
H     -1.308826   -0.618433    2.413386
H     -0.773997    1.071773    2.428696
H     -0.999892    0.399885   -2.491628
H     -0.141494   -1.243253   -2.449506
H     -1.681505   -3.164860   -0.835707
H      2.943207    0.208656    3.192325
H      1.950004    0.611998   -3.544225
H     -1.644173    3.215870   -1.255812
