58

C     -4.285126    1.082643    1.489359
C     -2.078792    0.660983    2.497167
C      3.192064   -1.534557   -0.930652
C      5.200683   -0.032727   -0.892699
C     -4.472077   -1.587210   -0.665343
C     -4.098610    0.438550   -1.796980
C     -5.522054   -1.885178   -1.519002
C     -5.150141    0.147443   -2.657311
C      4.521377    0.717531    1.690088
C      3.996329    1.722813    0.656029
C      2.593336   -0.806704    1.621850
C     -1.488408   -1.073404   -0.032774
C      2.468995    1.380321   -1.315820
C     -3.113870    0.073538    1.552324
C     -3.740473   -0.424361   -0.784678
C      4.064842   -0.636735    1.250989
C     -5.874205   -1.016449   -2.529495
C     -2.599666   -0.118135    0.152423
C      1.989251    0.385655    0.865837
C     -0.231178   -0.806064    0.673856
C      3.894287   -0.407405   -0.261439
C      2.998954    0.830122   -0.091938
F     -6.908453   -1.319052   -3.363558
N      0.763501    0.081278    0.242787
O     -0.034991   -1.432590    1.761684
O     -0.008843    2.331294   -0.984525
O      0.219156    0.271234   -2.371851
S      0.706984    1.028427   -1.195609
H     -4.543451    1.332154    0.447152
H     -5.164548    0.679783    2.047799
H     -3.982170    2.034005    1.969727
H     -1.173947    1.016263    2.013375
H     -1.822932   -0.100575    3.268946
H     -2.533064    1.564976    3.002228
H      3.555119   -1.657395   -1.981679
H      2.104255   -1.483747   -0.944325
H      3.505592   -2.488426   -0.416514
H      5.059000    0.803651   -1.628088
H      5.640516   -0.868936   -1.470938
H      5.952159    0.343716   -0.168589
H     -4.196742   -2.266096    0.124582
H     -3.545032    1.369499   -1.925380
H     -6.096614   -2.796685   -1.426952
H     -5.420302    0.827259   -3.443075
H      5.604509    0.809464    1.838566
H      4.002461    0.976922    2.656110
H      3.486280    2.571120    1.144728
H      4.810489    2.039960   -0.020034
H      2.413597   -0.754128    2.694796
H      2.211390   -1.767932    1.187736
H     -1.879905   -2.113411    0.203224
H     -1.284442   -1.150315   -1.142063
H      2.838139    0.819518   -2.204749
H      2.640293    2.459194   -1.472594
H     -3.514684   -0.874721    1.964370
H      4.687890   -1.467527    1.494519
H     -2.208987    0.898384   -0.176084
H      1.852258    1.172763    1.664600
