53

C     -5.715707   -0.247922    1.554001
C     -4.182515    1.706790   -0.301995
C     -4.341363    0.279981    1.766082
C      4.457720    1.016564    1.715861
C      3.257457    0.781523    1.285039
C      5.770745    1.141893    1.128626
C      2.894485    0.544589   -0.100899
C      0.477289   -2.340485   -0.220808
C      0.863272   -2.179957   -1.679833
C      6.077536    1.101642   -0.297482
C     -0.117674   -0.014320    0.472633
C     -3.552197    0.647608    0.575500
C      0.957875   -1.024116    0.429387
C      2.198317   -0.795633   -0.288033
C      1.924189   -1.119871   -1.693540
C     -0.724466    0.381318   -0.801920
C     -2.970418   -0.424908   -0.268160
C     -3.913818   -1.129115   -1.162481
N     -1.951806    0.193574   -1.095062
O      5.516674    2.143640   -1.068766
O      2.448362   -0.633113   -2.695919
O      0.039802    0.996952   -1.772288
O     -3.836871   -0.949304   -2.428663
O     -4.909261   -1.998432   -0.767119
H     -6.143448   -0.019819    0.571080
H     -6.444444    0.141946    2.318337
H     -5.715607   -1.343940    1.716421
H     -4.892173    1.273311   -1.043308
H     -3.364222    2.163453   -0.902438
H     -4.640578    2.523883    0.281844
H     -4.459136    1.225586    2.381496
H     -3.723331   -0.372549    2.427178
H      4.491251    1.167719    2.884574
H      2.438174    0.764458    2.076903
H      6.514349    0.433814    1.686468
H      6.213932    2.148232    1.524601
H      2.326903    1.403100   -0.481596
H      3.780898    0.449323   -0.733931
H     -0.596459   -2.479911   -0.138345
H      1.008597   -3.173437    0.257439
H      0.004728   -1.905571   -2.310488
H      1.355458   -3.115863   -2.023955
H      5.998251    0.129320   -0.821848
H      7.225044    1.292672   -0.391116
H      0.274299    0.879925    1.039064
H     -0.897223   -0.417305    1.192451
H     -2.628473    1.208588    1.005856
H      1.240892   -1.316530    1.502264
H      2.948104   -1.566960    0.064561
H     -2.548857   -1.210188    0.417929
H      5.073258    2.820139   -0.469555
H     -0.339751    1.646565   -2.456941
H     -5.168062   -2.828859   -1.308994
