61

C     -7.467485    0.658353    2.519262
C      7.124342    0.752243    1.650600
C      4.326168    1.739623    1.460330
C     -6.287147    0.244582    1.598703
C      5.949776   -0.142701    1.280269
C     -5.065529    0.419681    2.411242
C     -3.753097    0.083822    1.847950
C     -3.211125    0.782978    0.681477
C     -3.929286    0.733733   -0.617958
C      3.985811   -1.554060   -0.590701
C      2.435672    0.282012   -0.468636
C      3.785045   -1.598460   -1.952231
C      2.266034    0.202278   -1.825985
C     -0.553345   -0.198443   -3.921436
C      0.354698   -1.995204   -2.709115
C     -1.715898   -0.242491   -3.138350
C     -0.780641   -2.042519   -1.939093
C     -4.111494   -0.695902   -1.100285
C      3.548727   -0.587408    1.603515
C      4.678345    0.350314    1.901168
C      3.290612   -0.589579    0.151492
C      2.918015   -0.720780   -2.613150
C      0.495595   -1.070670   -3.719563
C     -1.864334   -1.161628   -2.126517
N      2.781147   -0.837092   -4.009618
N      1.656571   -1.000028   -4.532465
O     -2.925372   -1.312417   -1.293466
H     -8.353568    0.123357    2.166809
H     -7.617559    1.739242    2.401368
H     -7.213273    0.341132    3.546369
H      8.056407    0.196748    1.412586
H      7.047824    0.930251    2.751866
H      7.102577    1.685048    1.071330
H      5.056849    2.481128    1.801881
H      3.308410    1.972668    1.881038
H      4.185658    1.808267    0.352266
H     -6.405675    0.843457    0.705108
H     -6.452378   -0.843193    1.434024
H      6.177143   -1.158890    1.649408
H      5.884111   -0.208045    0.169546
H     -5.050524    1.474163    2.862668
H     -5.225438   -0.208112    3.352460
H     -3.708310   -1.042357    1.746883
H     -2.997246    0.249643    2.696830
H     -3.027872    1.867364    0.911594
H     -2.160144    0.400381    0.468011
H     -4.803738    1.368898   -0.736595
H     -3.181023    1.193550   -1.362089
H      4.660886   -2.247725   -0.121422
H      1.910646    1.011267    0.100934
H      4.310439   -2.339297   -2.569349
H      1.588965    0.893846   -2.338754
H     -0.478033    0.539952   -4.705085
H      1.184820   -2.686573   -2.554024
H     -2.516175    0.436090   -3.343016
H     -0.873147   -2.784113   -1.141841
H     -4.663306   -1.245369   -0.273844
H     -4.820966   -0.726581   -1.966049
H      3.752678   -1.625905    1.947096
H      2.601377   -0.274383    2.127186
H      4.787782    0.384151    3.007369
