61

C      7.957454    2.061799   -1.733992
C     -6.704233    3.254479   -0.334970
C     -6.630140    0.371867   -1.106391
C      8.202025    0.582584   -1.830592
C     -5.432453    2.430573   -0.367700
C      6.876912   -0.189619   -1.759116
C      6.258805    0.150947   -0.444660
C      4.949027   -0.502546   -0.170312
C      3.873234   -0.167792   -1.174780
C     -3.228455    0.661263    0.873403
C     -4.284853   -1.317019    0.153680
C     -2.957095    0.098544    2.098844
C     -4.021219   -1.893563    1.372649
C     -0.716494   -2.331123    1.719051
C     -0.009188   -0.827310    3.388355
C      0.344667   -1.907293    0.910749
C      1.036514   -0.405516    2.599963
C      2.625111   -0.932189   -0.709589
C     -4.165918    0.623731   -1.434658
C     -5.494152    1.332014   -1.385373
C     -3.901906   -0.047787   -0.121584
C     -3.353361   -1.185452    2.354793
C     -0.909056   -1.805208    2.955248
C      1.236301   -0.942785    1.332132
N     -3.123152   -1.852801    3.582113
N     -1.936686   -2.148279    3.863023
O      2.299806   -0.490503    0.572283
H      6.967146    2.332849   -2.155639
H      8.057120    2.453932   -0.687275
H      8.723745    2.643684   -2.319081
H     -7.458515    2.836420    0.340287
H     -7.095205    3.386030   -1.380846
H     -6.425248    4.268791    0.009426
H     -7.568119    0.944404   -1.265887
H     -6.609167   -0.457558   -1.825776
H     -6.636229    0.032835   -0.049202
H      8.757339    0.337169   -2.740016
H      8.856071    0.298924   -0.972392
H     -4.604104    3.105223   -0.626978
H     -5.300562    1.965683    0.622403
H      7.067281   -1.260300   -1.832617
H      6.289479    0.178533   -2.629076
H      6.969331   -0.220615    0.347884
H      6.196416    1.249068   -0.290052
H      5.038898   -1.589007    0.001961
H      4.584044   -0.080798    0.813074
H      3.586260    0.902357   -1.124843
H      4.134929   -0.395895   -2.208061
H     -2.918867    1.680671    0.656013
H     -4.817453   -1.886001   -0.623855
H     -2.440430    0.640826    2.870588
H     -4.338202   -2.931262    1.587534
H     -1.386767   -3.077322    1.367803
H     -0.116009   -0.374145    4.364869
H      0.493172   -2.331877   -0.077012
H      1.746355    0.365822    2.942894
H      1.795982   -0.793409   -1.432614
H      2.850969   -2.016552   -0.653270
H     -4.145069   -0.183915   -2.196259
H     -3.348437    1.335077   -1.614647
H     -5.697649    1.733863   -2.421904
