59

C      5.703040    1.216182    0.949053
C      1.546325    3.351599    0.606502
C      5.160307    2.291308    0.033787
C      2.655523   -3.463592    1.727113
C     -2.430532   -3.813880   -1.841852
C     -4.169060    2.712637   -0.021856
C      2.693564   -3.508540    0.362826
C      2.072500   -2.378489    2.351959
C     -2.745938   -3.306075   -0.595003
C     -1.483474   -3.158086   -2.622796
C     -4.339756    1.938321    1.267835
C     -4.525516    1.733462   -1.146383
C      2.147078   -2.464181   -0.385042
C      1.535695   -1.352487    1.603188
C     -2.126857   -2.152003   -0.120676
C     -0.892662   -2.022836   -2.123794
C     -3.162141    0.943448    1.306765
C     -3.327353    0.766190   -1.220436
C      0.879140    2.076866    0.214429
C      1.563146   -1.376157    0.216363
C     -1.210008   -1.515948   -0.876015
C      1.581539    1.036488   -0.186031
C      0.981172   -0.246677   -0.584511
C     -0.501188   -0.266751   -0.498187
C     -1.145824    0.795160   -0.094353
C      3.057817    1.151537   -0.235660
N     -2.570224    0.820912    0.004550
O      3.750552    0.149797   -0.623279
O      3.749390    2.281583    0.113465
O     -0.503150    2.004097    0.278003
H      6.670972    1.572866    1.374388
H      4.971169    1.060760    1.755972
H      5.866909    0.312551    0.336843
H      2.184247    3.241902    1.509419
H      2.035572    3.807431   -0.259463
H      0.754127    4.084697    0.924545
H      5.537294    3.289534    0.334341
H      5.481797    2.074025   -1.005272
H      3.086599   -4.287641    2.304795
H     -2.899228   -4.709378   -2.232982
H     -4.799194    3.616619   -0.072628
H     -3.091563    2.941477   -0.171154
H      3.145468   -4.348984   -0.151718
H      2.064403   -2.384930    3.432704
H     -3.479904   -3.799452    0.031729
H     -1.229215   -3.547408   -3.602386
H     -4.319574    2.644037    2.094193
H     -5.310256    1.387114    1.227649
H     -4.691398    2.252634   -2.095860
H     -5.395493    1.109671   -0.866967
H      2.178133   -2.500831   -1.459951
H      1.095767   -0.534770    2.129489
H     -2.370238   -1.781207    0.839520
H     -0.159726   -1.535359   -2.756328
H     -3.598836    0.015390    1.702078
H     -2.456379    1.377375    2.055402
H     -3.694798   -0.241973   -1.472070
H     -2.742353    1.124295   -2.100934
H      1.222593   -0.484334   -1.665318
