59

C      5.409294    1.887081    2.215758
C      0.982190    3.306822    1.411787
C      4.232040    2.353030    3.002582
C      3.855181   -2.779688   -0.961048
C     -2.219892   -4.072577   -1.262689
C     -4.854148    1.950103   -1.511475
C      3.341351   -1.696011   -1.641644
C      3.342043   -3.079272    0.275872
C     -2.038195   -3.074844   -2.188852
C     -1.855040   -3.905090    0.067092
C     -3.535263    2.523687   -1.886734
C     -4.868124    1.016681   -0.345477
C      2.327470   -0.913375   -1.104336
C      2.335095   -2.285055    0.786108
C     -1.475595   -1.888954   -1.750864
C     -1.293424   -2.704328    0.476088
C     -2.588459    1.336727   -2.120809
C     -3.653505    0.127985   -0.250300
C      0.446027    1.965524    0.929460
C      1.811009   -1.212909    0.137832
C     -1.107706   -1.697252   -0.447062
C      1.170263    0.914283    1.167245
C      0.739175   -0.412455    0.744525
C     -0.529042   -0.437826    0.053989
C     -1.206993    0.653856   -0.152107
C      2.472736    1.056349    1.881295
N     -2.492195    0.684626   -0.840005
O      3.162142    0.000873    2.099347
O      3.007030    2.213300    2.329695
O     -0.770641    1.939763    0.270234
H      5.194690    1.952751    1.111366
H      6.248539    2.593284    2.382561
H      5.776426    0.880008    2.506386
H      1.901166    3.546606    0.851432
H      1.043935    3.339409    2.493486
H      0.184126    4.057707    1.114377
H      4.134353    1.747767    3.950558
H      4.397247    3.391491    3.355874
H      4.662968   -3.393765   -1.402973
H     -2.666227   -5.013357   -1.606677
H     -5.541912    2.820512   -1.308834
H     -5.282938    1.464385   -2.425062
H      3.775163   -1.488904   -2.623300
H      3.734567   -3.934561    0.834086
H     -2.311891   -3.181161   -3.217968
H     -2.025405   -4.730298    0.744076
H     -3.617424    3.028077   -2.852214
H     -3.103539    3.152857   -1.082697
H     -5.008011    1.612428    0.575727
H     -5.756298    0.362816   -0.439221
H      1.981301   -0.083988   -1.701491
H      1.983527   -2.596641    1.780163
H     -1.322738   -1.120135   -2.492642
H     -1.001654   -2.548671    1.503192
H     -3.094310    0.603402   -2.803584
H     -1.618563    1.663742   -2.506661
H     -3.874313   -0.849737   -0.721124
H     -3.501678   -0.096903    0.839044
H      0.564066   -0.950180    1.756614
