65

C      1.725911   -2.161467   -1.842677
C      5.487977   -1.013357    0.634995
C      5.373865    0.738859   -1.123024
C      5.717475   -1.590569   -1.750743
C      1.402094    4.399476    0.347205
C     -3.975620    1.721621    3.199595
C     -5.213666   -1.940048   -1.608880
C      1.488790    3.813176    1.594474
C      0.984995    3.660747   -0.743954
C     -3.810582    0.352420    3.129988
C     -3.146679    2.531646    2.441924
C     -4.368579   -3.051027   -1.125153
C     -4.477222   -0.648074   -1.903943
C      1.157580    2.489246    1.744449
C      0.657120    2.323586   -0.558328
C     -2.842376   -0.196424    2.324656
C     -2.174519    1.968160    1.633250
C     -3.229414   -2.674471   -0.222460
C     -3.855705   -0.238226   -0.547972
C      0.801850   -1.396866   -0.926150
C      0.738567    1.722908    0.681994
C     -2.008733    0.618548    1.562372
C      1.279232   -0.517063   -0.079340
C      0.413386    0.276202    0.857068
C     -1.021262   -0.050322    0.710918
C     -1.490385   -0.942002   -0.142797
C      2.722595   -0.270578   -0.020461
C      5.022334   -0.682401   -0.762713
N     -2.876471   -1.286239   -0.295088
O      3.199464    0.569480    0.787328
O     -0.556860   -1.601273   -0.952576
O      3.632765   -0.923798   -0.823769
H      2.218947   -1.516918   -2.572615
H      2.366721   -2.823339   -1.254912
H      1.052713   -2.833262   -2.450357
H      4.658304   -1.172612    1.342382
H      6.109722   -1.933684    0.642246
H      6.117103   -0.200820    1.064141
H      5.268252    1.438844   -0.261265
H      6.459762    0.741968   -1.370163
H      4.802144    1.060915   -2.003067
H      5.913578   -1.045520   -2.714230
H      5.068069   -2.459629   -1.925772
H      6.697181   -1.897652   -1.309237
H      1.667082    5.460990    0.224397
H     -4.735406    2.136015    3.832915
H     -6.004299   -1.720375   -0.834278
H     -5.722330   -2.238684   -2.551253
H      1.815199    4.384052    2.461113
H      0.917465    4.127341   -1.730020
H     -4.446694   -0.325301    3.713762
H     -3.289586    3.597817    2.508781
H     -5.038069   -3.740583   -0.530768
H     -4.042031   -3.658936   -2.000525
H     -5.199299    0.094047   -2.242647
H     -3.642248   -0.840331   -2.575584
H      1.244536    2.072255    2.760509
H      0.335931    1.783351   -1.440265
H     -2.688406   -1.276873    2.262254
H     -1.586155    2.657542    1.071267
H     -3.420820   -2.962547    0.823839
H     -2.347593   -3.298534   -0.552475
H     -4.685552   -0.320052    0.159672
H     -3.386796    0.732042   -0.663827
H      0.764649   -0.023396    1.895794
