65

C      2.928056   -1.967845   -0.404752
C     -4.730310   -0.872301    0.291091
C     -4.340172   -0.548743    2.697868
C     -4.949071    1.339066    1.277493
C     -1.298128   -4.569029   -1.841184
C     -2.729859    4.184969    1.227420
C      6.130217    1.455179   -1.432044
C     -0.951428   -4.734024   -0.517448
C     -1.042245   -3.353302   -2.444564
C     -2.314722    3.308549    2.209935
C     -2.232433    3.985609   -0.045813
C      4.895905    1.972686   -2.090365
C      5.893900    0.281646   -0.515394
C     -0.362205   -3.675717    0.150417
C     -0.456100   -2.315415   -1.762478
C     -1.427315    2.275066    1.890895
C     -1.359351    2.965614   -0.350866
C      3.745054    0.976622   -2.101187
C      4.577563    0.515469    0.199880
C      1.840099   -0.970737   -0.110591
C     -0.100468   -2.456205   -0.438256
C     -0.954302    2.109242    0.611328
C      0.532838   -1.367180    0.339589
C     -0.391372   -0.231984    0.560755
C     -0.020646    0.985416    0.374282
C      2.151594    0.291988   -0.282597
C     -1.799120   -0.539217    0.904919
C     -4.143937    0.067781    1.339146
N      3.503364    0.595610   -0.735003
O     -2.124784   -1.768379    1.116052
O      1.281388    1.341914   -0.062908
O     -2.824458    0.343591    1.024130
H      3.480579   -2.284364    0.478628
H      2.466780   -2.838052   -0.957623
H      3.635045   -1.514576   -1.115458
H     -5.710975   -0.527623   -0.066399
H     -4.074649   -0.967247   -0.596204
H     -4.860357   -1.894470    0.704015
H     -5.440140   -0.613744    2.864934
H     -3.928227    0.074866    3.497873
H     -3.970422   -1.607582    2.741311
H     -4.526052    2.027133    0.508290
H     -4.865127    1.846855    2.262848
H     -6.012954    1.095604    1.067032
H     -1.764218   -5.369040   -2.413281
H     -3.412783    5.004388    1.404067
H      6.927168    1.203688   -2.157122
H      6.553218    2.280225   -0.799207
H     -1.131633   -5.665447   -0.003231
H     -1.309935   -3.195614   -3.502700
H     -2.692331    3.449679    3.205922
H     -2.539331    4.654447   -0.831500
H      4.501827    2.868546   -1.532533
H      5.077550    2.269498   -3.142922
H      5.881852   -0.667094   -1.097013
H      6.682277    0.195869    0.235069
H     -0.106134   -3.864760    1.207391
H     -0.246651   -1.356968   -2.213486
H     -1.154924    1.641538    2.731373
H     -1.015263    2.871815   -1.357980
H      2.866270    1.559410   -2.502202
H      3.920730    0.149424   -2.795208
H      4.693547    1.531426    0.679479
H      4.449422   -0.176529    1.032623
H      0.698291   -1.807240    1.383463
