68

C     -5.125823    2.523333    0.895339
C     -4.834525    1.109482    0.517608
C      3.815525    3.129762    0.337547
C     -3.765119   -4.846947   -1.758778
C      5.369751   -1.769281   -1.303846
C      3.621055    2.604284   -0.917586
C      3.016399    2.728990    1.378759
C     -2.899936   -5.000650   -0.693820
C     -3.782513   -3.668296   -2.482721
C      4.532846   -1.155054   -2.371625
C      4.569440   -2.267452   -0.112034
C     -1.542222    1.224022    3.411848
C      2.627817    1.665909   -1.176780
C      2.006187    1.781519    1.143327
C     -2.041435   -3.983235   -0.335942
C     -2.906921   -2.670139   -2.094297
C     -1.207572    0.569264    2.216530
C     -1.617065    2.599508    3.430832
C      3.069246   -1.492284   -2.225156
C      3.453884   -1.268417    0.225380
C     -1.042056    2.662599    1.137308
C      1.838740    1.279133   -0.114764
C     -2.041046   -2.817598   -1.031661
C     -0.959878    1.305252    1.085477
C     -1.373142    3.347746    2.312306
C     -0.619700    0.582928   -0.149638
C      0.789788    0.251580   -0.329596
C     -1.522097   -0.545047   -0.403387
C     -1.095115   -1.700616   -0.772470
C      1.161118   -0.955132   -0.714260
C     -2.975050   -0.370667   -0.128635
N      2.572599   -1.229325   -0.903764
N     -1.447709    4.765220    2.326082
O     -3.836410   -1.246427   -0.194679
O     -1.771777    5.449077    3.467999
O     -1.219039    5.423137    1.296612
O     -3.443230    0.908318    0.245881
O      0.274751   -1.990163   -0.955430
H     -5.968973    2.960982    0.311933
H     -4.198183    3.123487    0.794354
H     -5.415683    2.578907    1.971541
H     -5.078691    0.430441    1.360123
H     -5.468008    0.770281   -0.344329
H      4.599544    3.856350    0.490923
H     -4.449626   -5.628192   -2.061781
H      6.104707   -1.032645   -0.868958
H      5.926792   -2.652781   -1.698820
H      4.256319    2.929735   -1.720648
H      3.177283    3.147402    2.357809
H     -2.913687   -5.933686   -0.151860
H     -4.437665   -3.504626   -3.317338
H      4.711496   -0.071799   -2.397445
H      4.853189   -1.575527   -3.363341
H      5.238283   -2.333090    0.759115
H      4.053606   -3.224334   -0.352422
H     -1.736003    0.640652    4.298332
H      2.456345    1.259485   -2.150977
H      1.424451    1.497988    1.995975
H     -1.365729   -4.103733    0.495703
H     -2.934555   -1.749023   -2.690686
H     -1.160767   -0.511291    2.249044
H     -1.876581    3.149142    4.348806
H      2.997133   -2.596822   -2.445733
H      2.458665   -0.982199   -2.977681
H      2.902721   -1.755733    1.079542
H      3.870275   -0.297184    0.473947
H     -0.858407    3.309375    0.277189
H     -0.818017    1.364106   -0.980284
