67

C     -4.814877   -2.120284    1.842172
C      1.415413    2.385869    2.549292
C      1.161945    3.425896    0.346375
C     -4.425595   -2.292904    0.402207
C     -1.535893   -5.306192   -1.498026
C      5.383361   -1.031215   -0.832733
C     -2.043989   -4.191701   -2.139500
C     -0.624634   -5.143898   -0.474986
C      5.133762    0.400072   -1.254360
C      4.965655   -1.215227    0.596695
C     -1.972536    2.713641   -2.162232
C     -1.639135   -2.932596   -1.754926
C     -0.238417   -3.862008   -0.112431
C     -1.205959    1.824401   -1.446278
C     -2.881294    3.566933   -1.580118
C      3.656719    0.632315   -1.279950
C      4.016756   -0.109633    1.039156
C     -2.242688    2.614778    0.521948
C      1.583207    2.184417    1.049410
C     -0.742912   -2.738026   -0.749845
C     -1.344397    1.774759   -0.078185
C     -3.001175    3.497885   -0.209698
C      0.906404    0.946708    0.598976
C     -0.535348    0.808373    0.734490
C     -1.047944   -0.543497    0.239994
C     -0.271202   -1.448847   -0.262191
C      1.660829   -0.002360    0.085746
C     -2.467995   -0.811791    0.458084
N      3.093001    0.166287   -0.035373
N     -3.940998    4.372211    0.449561
O     -3.239905    0.085029    0.922278
O     -4.674638    5.235554   -0.319683
O     -4.049067    4.307864    1.695875
O     -3.048889   -2.013827    0.191326
O      1.114286   -1.173116   -0.341192
H     -4.061990   -1.594667    2.450294
H     -5.816743   -1.631927    1.860994
H     -4.968971   -3.115421    2.350042
H      0.437665    2.775686    2.825382
H      1.710254    1.450663    3.059073
H      2.173038    3.153231    2.837699
H      0.274603    3.903413    0.794530
H      1.104638    3.334715   -0.752049
H      2.006218    4.173093    0.516936
H     -5.064718   -1.696761   -0.282882
H     -4.579943   -3.354121    0.112617
H     -1.837697   -6.311887   -1.780655
H      4.756588   -1.681971   -1.473956
H      6.470702   -1.231047   -0.977359
H     -2.767589   -4.338847   -2.950726
H     -0.251502   -6.040116    0.000286
H      5.519178    0.596156   -2.276206
H      5.601283    1.097460   -0.507166
H      4.537442   -2.217914    0.794249
H      5.877404   -1.130183    1.227177
H     -1.876494    2.766056   -3.239842
H     -2.043021   -2.059003   -2.286111
H      0.481998   -3.795226    0.699634
H     -0.491559    1.158810   -1.940816
H     -3.482071    4.268736   -2.177140
H      3.380670    1.677728   -1.521208
H      3.208022   -0.024222   -2.082403
H      3.496017   -0.483516    1.948894
H      4.665882    0.766147    1.271652
H     -2.380693    2.605360    1.603086
H      2.676398    2.058619    0.912219
H     -0.856858    0.915087    1.791876
