58

C      5.458032   -2.037215   -0.453206
C     -2.175000    1.866733   -1.747885
C     -0.250820    1.043212   -2.946515
C      0.961314   -2.931427    1.871456
C      5.113411   -0.646348    0.016325
C      2.464128    3.677955    1.215607
C     -4.613567   -1.634158    1.250625
C      1.529809    2.903308    1.859386
C      2.910722    3.249851   -0.017122
C     -4.758902   -1.674800   -0.243879
C     -4.268067   -0.267866    1.732410
C      1.066352    1.743059    1.279601
C      2.460365    2.094603   -0.612738
C     -3.407413   -1.383899   -0.912934
C     -3.412934    0.461295    0.687682
C     -0.836081    1.351817   -1.549967
C      0.532629   -1.811992    0.975077
C      1.526818    1.337677    0.050314
C     -0.505664    0.257889   -0.676565
C      1.374519   -1.025688    0.339286
C      0.989253    0.066632   -0.536270
C     -1.276348   -0.549476   -0.026072
C      2.799692   -1.257398    0.518792
N     -2.673993   -0.467190   -0.085173
O      3.280883   -2.148986    1.233036
O      3.716399   -0.439010   -0.143280
O     -0.807078   -1.591416    0.805999
H      6.261130   -1.989444   -1.220582
H      5.900139   -2.632363    0.392998
H      4.552980   -2.538063   -0.805195
H     -2.951454    1.173625   -2.076780
H     -2.530342    2.604257   -0.967957
H     -2.096577    2.574553   -2.652393
H     -0.374893   -0.034175   -3.183499
H      0.810774    1.346797   -3.017556
H     -0.800662    1.603796   -3.730981
H      1.571802   -2.573068    2.697896
H      1.537442   -3.637368    1.249708
H      0.051792   -3.436149    2.289001
H      5.683413    0.085598   -0.552736
H      5.394970   -0.528101    1.083129
H      2.854861    4.606816    1.647135
H     -3.870159   -2.361493    1.628396
H     -5.611028   -1.900190    1.686225
H      1.171480    3.238806    2.838883
H      3.656095    3.893838   -0.500465
H     -5.069240   -2.666381   -0.567106
H     -5.459678   -0.909694   -0.580988
H     -5.172262    0.333383    1.959453
H     -3.666914   -0.305014    2.665483
H      0.317603    1.158943    1.837940
H      2.842456    1.802107   -1.581781
H     -2.880203   -2.372502   -0.964287
H     -3.606399   -1.088207   -1.930382
H     -2.799951    1.248040    1.172231
H     -4.182710    1.000428    0.054228
H     -0.184673    2.232696   -1.215847
H      1.451748   -0.118634   -1.538162
