58

C      5.192605   -2.318954    1.708594
C     -1.119959    1.686520    2.324778
C     -1.139364    2.838622    0.221791
C      1.252703   -3.147354   -0.936805
C      4.897338   -2.385013    0.225860
C      3.072428    3.604612   -0.749081
C     -4.673430   -1.743497   -1.583504
C      3.069280    3.272207    0.586523
C      2.309564    2.843959   -1.625089
C     -4.498325   -1.986144   -0.102744
C     -4.556878   -0.288975   -1.961320
C      2.320358    2.207440    1.019959
C      1.568771    1.783602   -1.167491
C     -3.855001   -0.753081    0.468126
C     -3.197688    0.291768   -1.609776
C     -1.469647    1.522624    0.819781
C      0.657620   -1.892833   -0.435282
C      1.539354    1.416979    0.170405
C     -0.688620    0.364233    0.398611
C      1.373889   -1.000527    0.162793
C      0.746592    0.252883    0.656855
C     -1.402528   -0.592305   -0.223510
C      2.796276   -1.188312    0.373990
N     -2.770684   -0.384136   -0.400405
O      3.435255   -0.282001    0.964651
O      3.504717   -2.310384   -0.035554
O     -0.682812   -1.698701   -0.622054
H      5.253248   -1.284310    2.054239
H      6.162873   -2.812636    1.923391
H      4.416277   -2.913820    2.267981
H     -1.156594    0.694886    2.821305
H     -1.935588    2.291715    2.819464
H     -0.190953    2.233503    2.459860
H     -0.209154    3.317565    0.555673
H     -1.110309    2.712856   -0.900601
H     -2.025719    3.513661    0.459571
H      1.724825   -3.757643   -0.146999
H      0.489794   -3.801629   -1.431225
H      2.048536   -2.938373   -1.699229
H      5.325086   -3.329382   -0.147301
H      5.440956   -1.554857   -0.263359
H      3.665346    4.448885   -1.097688
H     -3.995563   -2.394495   -2.169944
H     -5.704028   -2.058392   -1.849385
H      3.647385    3.838858    1.290231
H      2.334863    3.133129   -2.669378
H     -3.947145   -2.910935    0.128572
H     -5.498140   -2.083181    0.409776
H     -5.375819    0.248189   -1.438282
H     -4.703818   -0.203097   -3.036309
H      2.337882    1.973433    2.072958
H      0.970351    1.190467   -1.868742
H     -4.673859    0.027298    0.463884
H     -3.589288   -0.832419    1.528472
H     -3.286426    1.397188   -1.416600
H     -2.471236    0.187671   -2.436346
H     -2.564908    1.323893    0.891136
H      0.939311    0.228738    1.774772
