61

C     -5.471051    0.392271    0.345685
C      1.619665   -2.269116    0.643426
C     -4.666250   -0.162550    1.494434
C     -1.620914    5.503383   -0.411030
C      5.923034   -0.147360   -0.630361
C     -0.728170    5.177102    0.585430
C     -2.097363    4.475966   -1.199899
C     -2.805753   -3.781702    0.974371
C     -2.783834   -4.230901   -0.337284
C      4.947841    0.560681   -1.507493
C      5.249225   -1.027899    0.403590
C     -0.327567    3.878034    0.786177
C     -1.685574    3.164732   -0.989066
C     -2.059611   -2.670383    1.268227
C     -2.048559   -3.588103   -1.290002
C      3.557766   -0.065749   -1.447459
C      4.076301   -0.283635    0.955935
C      0.953272   -0.943550    0.498244
C     -0.795240    2.832019    0.004203
C     -1.293157   -1.987352    0.309284
C     -1.284450   -2.448654   -0.991445
C     -0.487362   -0.869128    0.798074
C     -1.063632    0.495640    0.586426
C     -0.273379    1.481868    0.219514
C      1.687156    0.079140    0.147625
C     -2.455103    0.742696    0.861416
N      3.112633   -0.092854   -0.085178
N     -0.542488   -1.831304   -2.007364
O     -3.004050    1.871586    0.811536
O      0.000576   -2.629867   -2.996792
O     -0.380786   -0.634752   -2.086791
O     -3.309254   -0.295528    1.211586
O      1.111113    1.314062   -0.004787
H     -6.537686    0.085353    0.434351
H     -5.443426    1.491129    0.408482
H     -5.088888    0.086864   -0.633771
H      1.929017   -2.484194    1.677438
H      2.520373   -2.362838    0.003458
H      0.870676   -3.074013    0.383845
H     -5.058247   -1.200723    1.684528
H     -4.870725    0.404437    2.429028
H     -1.950504    6.519198   -0.586820
H      6.639336   -0.707522   -1.251958
H      6.539583    0.643592   -0.114461
H     -0.354923    5.979947    1.202512
H     -2.795442    4.724689   -1.980750
H     -3.398869   -4.314262    1.703324
H     -3.371131   -5.113834   -0.590596
H      5.295005    0.497406   -2.556825
H      4.882117    1.655760   -1.282581
H      5.994860   -1.305491    1.175031
H      4.870574   -1.918637   -0.138247
H      0.384698    3.623819    1.581970
H     -2.076533    2.391928   -1.644139
H     -2.091169   -2.364424    2.316957
H     -2.017303   -3.927282   -2.329461
H      3.550766   -1.044079   -1.939524
H      2.896338    0.669392   -1.994268
H      4.460233    0.723604    1.294298
H      3.656428   -0.734894    1.873839
H     -0.490193   -0.953718    1.954106
