61

C     -5.352729   -0.705339   -0.563678
C      1.728958    2.568480    0.204699
C     -4.657942   -1.385619    0.570063
C     -1.821255   -5.006193    0.874508
C      5.549570   -1.054225    0.154325
C     -1.103710   -4.635644   -0.256178
C     -2.074032   -4.126860    1.898873
C     -2.609120    4.281594   -0.142884
C     -2.509895    4.452762   -1.500987
C      5.370193    0.233923    0.952851
C      4.786975   -0.954396   -1.145871
C     -0.654890   -3.332922   -0.300202
C     -1.602122   -2.829084    1.808555
C     -1.964966    3.260800    0.506531
C     -1.743366    3.565781   -2.191339
C      3.914427    0.244274    1.412809
C      3.732881    0.137740   -1.086493
C      1.016603    1.273148    0.353935
C     -0.893006   -2.435267    0.707053
C     -1.166816    2.332745   -0.189265
C     -1.083018    2.520285   -1.538620
C     -0.437837    1.331655    0.557105
C     -1.072125   -0.036967    0.636411
C     -0.323343   -1.106732    0.609429
C      1.690113    0.162159    0.347886
C     -2.535144   -0.116995    0.636466
N      3.108452    0.181082    0.204509
N     -0.331772    1.689067   -2.396367
O     -3.251387    0.933604    0.689672
O     -0.123987    0.384956   -2.148008
O      0.191065    2.148237   -3.460117
O     -3.272359   -1.277552    0.576235
O      1.077699   -1.045119    0.470214
H     -4.735603   -0.614599   -1.476679
H     -5.620606    0.323939   -0.248590
H     -6.326590   -1.204880   -0.826703
H      2.223884    2.788413    1.161803
H      2.452296    2.508716   -0.656581
H      1.011808    3.400965   -0.046906
H     -5.136298   -1.066648    1.522249
H     -4.896153   -2.486897    0.492519
H     -2.186038   -6.024897    0.934632
H      6.614083   -1.271919   -0.025512
H      5.096959   -1.867485    0.760003
H     -0.917693   -5.345744   -1.047934
H     -2.644247   -4.431029    2.791341
H     -3.216919    4.980312    0.418342
H     -3.030242    5.276858   -2.016783
H      5.472818    1.067883    0.243507
H      6.064718    0.273253    1.796160
H      4.242518   -1.911039   -1.332267
H      5.482228   -0.699099   -1.962115
H     -0.090766   -3.066706   -1.205544
H     -1.811935   -2.161119    2.647371
H     -2.038103    3.136667    1.592710
H     -1.673681    3.713829   -3.268542
H      3.680820    1.105314    2.051478
H      3.699912   -0.694798    2.000055
H      4.236737    1.084011   -1.378322
H      2.965801   -0.118748   -1.855015
H     -0.501821    1.652066    1.683200
