59

C     -5.437363    0.225877    0.489145
C      2.127876    1.865457    1.308272
C     -4.770965   -0.957336    1.134411
C     -1.720981    4.528462   -0.683163
C     -2.797752   -4.533704   -1.371058
C      5.845739   -0.265953   -0.681918
C     -1.742701    4.419523    0.699690
C     -1.225187    3.488312   -1.464660
C     -3.103587   -3.259281   -1.815965
C     -1.762797   -4.687610   -0.472422
C      4.785809   -0.735869   -1.637654
C      5.272671   -0.055655    0.704005
C     -1.266991    3.267517    1.293559
C     -0.756806    2.350104   -0.844988
C     -2.411500   -2.158276   -1.390704
C     -1.082868   -3.578813   -0.058084
C      3.513199    0.053348   -1.370251
C      3.989447   -0.879593    0.881509
C      1.166079    0.826625    0.864905
C     -0.779258    2.245234    0.516605
C     -1.393440   -2.288137   -0.508854
C     -0.261919    0.992296    1.159964
C     -1.116048   -0.137133    0.660547
C     -0.616894   -1.158106    0.013292
C      1.650292   -0.203778    0.216536
C     -2.520485   -0.053592    1.031541
N      3.043709   -0.349625   -0.067960
O     -2.952690    0.983615    1.635885
O     -3.422935   -1.055414    0.764065
O      0.765715   -1.177428   -0.200256
H     -6.125487    0.709097    1.242275
H     -4.713748    0.967839    0.099681
H     -6.080099   -0.118222   -0.348050
H      1.585264    2.712449    1.750905
H      2.798563    1.418408    2.080256
H      2.758742    2.254528    0.478025
H     -4.885693   -0.886375    2.241151
H     -5.277952   -1.880643    0.805939
H     -2.088536    5.419761   -1.153414
H     -3.342160   -5.389712   -1.706953
H      6.640285   -1.054095   -0.652622
H      6.311447    0.665552   -1.070298
H     -2.140631    5.259801    1.281270
H     -1.213000    3.584205   -2.544732
H     -3.927681   -3.142664   -2.530553
H     -1.460388   -5.641418   -0.077765
H      5.142621   -0.594268   -2.678160
H      4.607494   -1.805221   -1.490340
H      4.971668    1.000359    0.842059
H      6.020370   -0.349639    1.471268
H     -1.296840    3.211674    2.372747
H     -0.363702    1.521226   -1.428848
H     -2.686520   -1.181909   -1.788326
H     -0.256901   -3.648435    0.651500
H      2.742866   -0.205750   -2.152832
H      3.735594    1.131632   -1.396925
H      4.216011   -1.954658    0.701071
H      3.674401   -0.805858    1.928554
H     -0.363356    1.091270    2.267121
