22

C      2.089857   -1.785050    0.069454
C      2.993165   -0.741305    0.050366
C      0.719932   -1.521387    0.192835
C      2.523223    0.563223    0.154778
C     -1.975903    0.127245   -0.732922
C     -2.246694   -1.262664   -1.006251
C      0.256081   -0.235675    0.295800
C      1.175832    0.789974    0.274467
C     -0.778151    1.830291    0.484447
C     -1.065256    0.362938    0.432422
N     -2.451063   -2.365649   -1.221559
N      0.478995    2.040758    0.394353
O     -1.727969    2.853672    0.612994
O     -1.704042   -0.055776    1.597565
H      2.469675   -2.783854   -0.012082
H      4.069462   -0.898070   -0.043985
H      0.077826   -2.391462    0.199836
H      3.259412    1.369744    0.136979
H     -1.592956    0.641775   -1.652720
H     -2.939494    0.661507   -0.501232
H     -1.583114    3.774681    0.242680
H     -2.048817   -0.974914    1.401378
