90

C      6.468517    3.497561    0.896414
C     -0.889011   -5.440118    1.576332
C     -1.774979    4.873751    0.186520
C     -5.124161   -0.448286    1.147108
C      3.941688    0.546845   -2.709187
C     -4.164863   -3.928944   -0.101757
C      3.769048   -1.655752   -0.023754
C      5.656386    2.657756    0.261257
C      4.636593    3.184344   -0.596372
C      1.147856    3.625130    1.133687
C      2.373584    3.358600    1.919959
C      3.793270    2.428878   -1.261658
C     -0.068594    3.229929    1.186847
C      2.923501    2.186361    2.197333
C      0.661203   -3.784598    0.701647
C     -4.652406   -0.473686   -1.324682
C     -4.117882    0.674586   -1.611468
C      1.083005   -2.336969    0.664362
C     -1.744014   -3.732850   -0.025267
C     -1.838052    1.389349   -0.876145
C     -0.767394   -3.987552    1.092980
C     -1.324974    3.497325    0.390301
C     -4.516584   -1.114437   -0.029800
C      3.754646    0.989125   -1.240195
C     -3.051744   -3.125703    0.483733
C      2.666035   -1.146781   -0.902317
C     -3.331538    1.411340   -0.636194
C      1.355712   -1.872575   -0.729111
C     -1.240050    2.778536   -0.944547
C      2.297775    0.943514    1.693387
C     -3.112204   -1.648521    0.233050
C      2.479422    0.372828   -0.767459
O     -3.682658    2.776850   -0.906545
O      0.364269   -1.004936   -1.223140
O      0.065752    2.774716   -1.382389
O      2.048524    0.074285    2.622735
O     -2.657177   -1.026803    1.398558
O      1.981089    0.641629    0.444609
H      7.223355    3.084430    1.532002
H      6.344173    4.544306    0.754617
H     -1.807072   -5.591766    2.167425
H      0.031361   -5.754649    2.112676
H     -0.979352   -6.104652    0.688444
H     -1.467829    5.209924   -0.847698
H     -1.180852    5.551794    0.865734
H     -2.831055    5.058383    0.365710
H     -5.875618   -1.126545    1.659392
H     -4.429368   -0.228706    1.985379
H     -5.748664    0.398832    0.820266
H      4.343702    1.373908   -3.330892
H      4.532304   -0.362203   -2.795700
H      2.924760    0.353788   -3.095135
H     -3.799343   -5.001704   -0.117538
H     -5.068564   -3.995170    0.573244
H     -4.414621   -3.704197   -1.140569
H      3.846550   -1.156154    0.949305
H      4.767962   -1.494992   -0.527941
H      3.677473   -2.752423    0.071433
H      5.756419    1.585389    0.386542
H      4.568210    4.289495   -0.693509
H      1.559405    4.387114    0.344316
H      2.976567    4.214191    2.340204
H      3.059002    2.961231   -1.884953
H     -0.510760    2.493343    1.954388
H      3.838736    2.072344    2.803650
H      0.802004   -4.232476   -0.306519
H      1.285338   -4.391914    1.417810
H     -5.244932   -0.983413   -2.126456
H     -4.301034    1.054576   -2.644474
H      2.060720   -2.287127    1.221747
H      0.389431   -1.678683    1.219773
H     -1.927143   -4.739615   -0.504458
H     -1.375297   -3.088523   -0.820517
H     -1.294390    0.857104   -0.070785
H     -1.684388    0.935024   -1.875923
H     -1.017348   -3.364004    1.973717
H     -2.214768    2.991059    0.915527
H     -5.108324   -2.087362   -0.123132
H      4.589644    0.551362   -0.704820
H     -3.048445   -3.346908    1.592041
H      2.980418   -1.360976   -1.966172
H     -3.603678    1.336397    0.411934
H      1.331204   -2.783137   -1.394358
H     -1.806762    3.389773   -1.710400
H     -2.413464   -1.425602   -0.576890
H      1.702405    0.596956   -1.560426
H     -4.662650    2.799357   -0.997190
H      0.482996   -0.976885   -2.208307
H      0.137665    2.297798   -2.245122
H     -2.805672   -1.552822    2.203778
