38

C     -3.093500    0.435207   -1.119389
C      1.234615   -2.867948   -0.995489
C      2.379201    0.808189   -0.509134
C      1.642219    2.060268   -1.005875
C      0.833644   -1.322747    0.995015
C     -2.185358   -0.451695   -0.290292
C      1.868941   -0.441637   -1.119320
C     -1.305676   -0.071008    0.612782
C     -1.026227    1.348726    1.003302
C     -0.653440    2.106380   -0.220115
C     -2.144254   -1.901434   -0.372471
C      1.022391    2.292107    1.495435
C      1.252803   -1.444623   -0.417020
C      0.751787    2.562743    0.072116
C     -0.662597   -1.228548    1.169839
O     -2.875322   -2.580633   -1.153397
O      1.956206    2.732089    2.176112
O     -1.025470   -1.361227    2.517392
O      0.021359    1.443357    1.927091
O      0.460756   -0.568169   -1.289471
O     -0.276363    3.441377   -0.156653
O     -1.211587   -2.339552    0.513253
H     -4.116242   -0.019241   -1.159926
H     -2.750420    0.526542   -2.146647
H     -3.201359    1.381411   -0.578697
H      2.284785   -3.250308   -0.840068
H      0.569776   -3.531211   -0.419159
H      1.033132   -2.878645   -2.065192
H      2.392585    0.853948    0.581879
H      3.454545    0.968495   -0.821784
H      1.050226    1.780679   -1.914563
H      2.337174    2.863941   -1.293824
H      1.379393   -0.578355    1.603528
H      1.100122   -2.305393    1.500656
H      2.376958   -0.704330   -2.095857
H     -1.914125    1.833804    1.459874
H     -0.934342    1.791426   -1.232462
H     -2.026335   -1.383986    2.523698
