43

C      0.478566   -0.164687   -2.412616
C     -4.910145    0.907887    0.239779
C     -2.074978   -0.380237   -1.272860
C     -1.011811    0.262343   -0.565167
C     -3.282009   -0.508651   -0.807922
C      3.427386   -0.151103   -0.824510
C      0.756386    1.311206    1.173716
C      0.239789    0.394144   -1.064690
C     -3.696676   -0.007752    0.500951
C      2.433564    0.253197    0.156206
C      1.254929    1.086401   -0.264606
C      4.035685    1.067649   -1.416409
C      1.677800   -0.822554    0.894761
C     -4.186258   -1.135144    1.371631
C      2.494003   -1.603303    1.812102
N      0.674110   -0.033726    1.637999
O      3.516528    1.787841   -2.296846
O      5.308337    1.501235   -0.988369
O     -4.080619   -2.292902    0.923687
O     -4.717980   -0.842572    2.598841
O      2.308065   -1.556649    3.044981
O      3.495622   -2.414225    1.320737
H      0.596872   -1.261117   -2.400745
H      1.398540    0.243236   -2.904775
H     -0.399370    0.024888   -3.114412
H     -4.807060    1.442841   -0.716081
H     -4.941448    1.602758    1.098077
H     -5.805089    0.266707    0.259623
H     -1.894730   -0.808211   -2.261685
H     -1.196503    0.655576    0.397907
H     -4.068445   -1.025216   -1.418296
H      3.013939   -0.754044   -1.629339
H      4.313729   -0.697436   -0.346331
H     -0.086673    1.957594    1.269370
H      1.680622    1.742793    1.687733
H     -2.917778    0.526349    1.018538
H      2.922253    0.863165    0.996841
H      1.568687    2.058384   -0.708361
H      1.139319   -1.482704    0.190079
H      0.790922   -0.161340    2.656827
H      5.560273    2.492803   -0.979448
H     -5.253208   -1.557386    3.116463
H      4.244855   -2.788035    1.866262
