43

C     -0.377283   -1.078131    1.791945
C      5.414227   -0.843410   -0.039114
C      2.098785   -1.515264    0.689383
C      1.329607   -0.400440    0.247509
C      3.262211   -1.815778    0.230959
C     -1.940828   -0.552895   -1.026374
C     -1.005075    1.942794    1.459582
C      0.116970   -0.146046    0.756866
C      4.063372   -1.200280   -0.762094
C     -1.959549    0.752924   -0.345324
C     -0.640911    1.036151    0.292217
C     -3.178279   -0.948794   -1.698161
C     -2.963104    0.945470    0.726327
C      3.690801   -0.074393   -1.561855
C     -3.877775    2.058495    0.367788
N     -2.260073    1.380877    1.922528
O     -3.436830   -0.478677   -2.835428
O     -4.123396   -1.824022   -1.179754
O      4.100665    1.079626   -1.307233
O      2.845659   -0.224106   -2.674534
O     -3.976693    3.127549    1.016846
O     -4.688456    1.934469   -0.756798
H     -0.339759   -2.142502    1.492943
H     -1.386848   -0.804881    2.161412
H      0.290455   -0.993514    2.676337
H      5.265491    0.082598    0.531696
H      5.684905   -1.680866    0.615749
H      6.207354   -0.695107   -0.777091
H      1.647779   -2.171963    1.501355
H      1.662932    0.293767   -0.477739
H      3.731502   -2.739578    0.708750
H     -1.590573   -1.373077   -0.351750
H     -1.122869   -0.503707   -1.805338
H     -1.103188    2.990499    1.149579
H     -0.225626    1.777632    2.230229
H      4.418763   -2.022905   -1.479482
H     -2.101729    1.549924   -1.140063
H      0.005226    1.648246   -0.371534
H     -3.571960    0.084377    0.982683
H     -2.769776    2.147369    2.415840
H     -5.082939   -1.848686   -1.508536
H      2.875476    0.495113   -3.399455
H     -4.988661    2.751137   -1.305199
