91

C     -5.645083   -1.749647    3.402711
C      5.031339   -3.376921   -1.002062
C     -3.327691    0.066144   -0.531392
C     -4.634070    0.344657   -0.769039
C      3.396082    0.655210    1.449366
C     -3.852107   -0.948909    1.496496
C      3.564143   -1.388784    0.285435
C    -10.576232   -0.688276   -2.100947
C     10.385878   -1.302921   -1.543837
C      0.092533    0.662906   -0.397368
C     -0.047595   -2.635654    0.844701
C     -2.880583   -0.586886    0.601571
C      2.777172   -0.455831    0.899901
C     -0.565849   -0.694341   -0.345980
C      0.653181   -1.529669    0.115492
C      4.765101    0.787235    1.363207
C     -5.636205   -0.023541    0.145889
C     -5.202632   -0.681939    1.290905
C      4.947003   -1.243703    0.204867
C     -9.994281    0.047055   -0.923610
C      9.668354    0.036613   -1.305260
C     -9.449461    1.370913   -1.484319
C     10.343867    0.776414   -0.158952
C     -9.240519    2.230120   -0.227337
C      9.662313    2.139356   -0.131714
C     -8.806767    1.366420    0.929417
C      8.213918    1.899025    0.190843
C     -1.457023   -0.875490    0.848982
C      1.299327   -0.536275    1.038411
C      5.563358   -0.149399    0.745418
C     -8.142665    0.083319    0.474896
C      7.599102    0.693443   -0.399248
O    -11.656260    0.073165   -2.599983
O     11.701445   -1.027197   -1.902042
O      5.327202    1.934113    1.939116
O    -10.314070    1.962436   -2.369705
O     11.705426    0.842287   -0.306951
O     -8.389718    3.295787   -0.474772
O     10.227726    2.860436    0.915610
O     -9.851325    1.063366    1.793622
O      7.525401    3.041322   -0.286303
O     -6.123696   -1.086085    2.255052
O      5.660901   -2.246805   -0.440992
O     -1.267305   -2.168329    1.305684
O      0.777798    0.707950    0.805966
O     -6.926875    0.269825   -0.119434
O     -8.945530   -0.644342   -0.398887
O      8.396798   -0.253301   -0.953029
O      6.909736    0.020749    0.683348
H     -5.163783   -2.704401    3.115632
H     -4.850857   -1.147043    3.927064
H     -6.444368   -1.894717    4.163119
H      4.337139   -3.133089   -1.819885
H      4.515626   -3.942516   -0.189300
H      5.830652   -4.027641   -1.435599
H     -2.572357    0.368074   -1.272656
H     -4.979084    0.854219   -1.653559
H      2.792036    1.413621    1.945272
H     -3.551550   -1.462517    2.394739
H      3.100660   -2.259023   -0.143969
H     -9.877576   -0.775723   -2.960818
H    -11.014237   -1.658673   -1.804918
H     10.327210   -1.869133   -0.583965
H      9.887099   -1.815855   -2.375906
H     -0.623470    1.504661   -0.490340
H      0.843203    0.650220   -1.214868
H      0.615021   -2.966465    1.671990
H     -0.158972   -3.483700    0.145405
H     -0.971337   -1.050744   -1.287572
H      1.238530   -1.826770   -0.750506
H    -10.821489    0.270520   -0.220090
H      9.794965    0.648378   -2.223430
H     -8.490131    1.121330   -1.954555
H     10.024606    0.236271    0.775840
H    -10.237731    2.652174    0.016410
H      9.819519    2.638518   -1.097792
H     -8.050989    1.935593    1.504669
H      8.084159    1.940290    1.294259
H     -1.083883   -0.204219    1.671958
H      1.083486   -0.880818    2.093117
H     -8.058278   -0.534936    1.381197
H      6.778822    1.011069   -1.119363
H    -12.389654    0.154769   -1.934952
H     12.338241   -1.283922   -1.177828
H      4.783835    2.639114    2.396856
H    -10.771987    2.748551   -1.996875
H     12.043478    1.444236    0.416211
H     -8.265048    3.432769   -1.468536
H      9.910572    3.798962    0.890056
H     -9.849503    1.722731    2.530789
H      6.815859    2.799820   -0.918647
