91

C      4.466784   -3.185897   -2.168885
C     -5.625815   -3.325048    2.411402
C      3.863821    0.455427    1.144672
C      5.173738    0.587907    0.661246
C     -3.173255    0.392038   -0.049272
C      3.534784   -1.395129   -0.250701
C     -3.750895   -1.422814    1.397171
C     10.528720    0.329890    1.934164
C     -9.444233    0.888213   -2.737525
C      0.021082    1.139163    0.824832
C      0.147088   -2.347653    0.886712
C      3.023511   -0.536769    0.697906
C     -2.817821   -0.518663    0.930852
C      0.595672   -0.131968    0.288643
C     -0.530605   -1.098109    0.397121
C     -4.458209    0.355005   -0.521413
C      5.686551   -0.266471   -0.284355
C      4.814956   -1.275700   -0.731702
C     -5.058191   -1.449804    0.906293
C      9.624639    0.974812    0.935981
C     -9.148698    1.596214   -1.416964
C     10.399835    1.851982   -0.030906
C    -10.271415    1.496605   -0.444151
C     10.045770    1.505241   -1.467310
C    -10.139987    0.374535    0.527920
C      8.558678    1.390292   -1.683370
C     -8.981349   -0.525687    0.235536
C      1.628516   -0.689432    1.207512
C     -1.415727   -0.472400    1.436382
C     -5.425777   -0.555598   -0.063100
C      7.937338    0.712664   -0.503878
C     -7.767989    0.271737   -0.062896
O     11.183057    1.251856    2.709582
O     -8.464746    1.353088   -3.641357
O     -4.846337    1.252703   -1.502316
O     10.230443    3.198016    0.257243
O    -10.519452    2.726095    0.189149
O     10.719495    0.333143   -1.796302
O    -11.292921   -0.423612    0.555350
O      8.064379    2.706161   -1.768940
O     -8.753341   -1.257894    1.415988
O      5.306106   -2.153855   -1.687970
O     -5.932460   -2.387330    1.424699
O      1.324436   -2.012048    1.476700
O     -1.036888    0.822106    1.645716
O      6.961042   -0.209583   -0.814532
O      8.969326   -0.009690    0.155995
O     -7.905812    1.301135   -0.958564
O     -6.698117   -0.541396   -0.578245
H      3.501957   -2.779707   -2.551773
H      4.981242   -3.779626   -2.945884
H      4.196888   -3.898893   -1.337177
H     -6.586562   -3.769353    2.765290
H     -5.078386   -2.819897    3.224280
H     -4.985807   -4.144264    1.983732
H      3.516895    1.161548    1.892120
H      5.810379    1.377453    1.033100
H     -2.464867    1.117109   -0.439462
H      2.863214   -2.188819   -0.608338
H     -3.482964   -2.135967    2.160869
H     11.270442   -0.273449    1.369446
H      9.947660   -0.384069    2.552391
H     -9.417643   -0.196212   -2.676407
H    -10.468227    1.199994   -3.053514
H      0.790912    1.646603    1.473180
H     -0.225784    1.861888    0.027545
H     -0.464580   -2.950749    1.575965
H      0.370974   -3.012572    0.006217
H      0.976753   -0.009603   -0.754791
H     -1.049002   -1.259004   -0.570345
H      8.813983    1.581097    1.386857
H     -9.113362    2.694225   -1.718585
H     11.476159    1.615723    0.086153
H    -11.205371    1.306894   -1.052498
H     10.497882    2.319121   -2.091603
H     -9.982942    0.832855    1.545088
H      8.399434    0.847842   -2.640884
H     -9.225352   -1.269901   -0.556951
H      1.517603   -0.153112    2.198667
H     -1.371685   -1.031271    2.397895
H      7.582340    1.484327    0.197200
H     -7.399300    0.731882    0.900834
H     10.624703    1.743498    3.332499
H     -8.771267    1.325671   -4.567527
H     -4.226214    1.945552   -1.895642
H     10.902229    3.439550    0.943325
H     -9.799630    3.384100   -0.046354
H     10.112337   -0.360092   -2.156498
H    -11.486707   -0.616656    1.506589
H      8.190568    3.085574   -2.672934
H     -8.888628   -0.742766    2.226841
