20

C      2.134789    0.455363   -0.518971
C     -2.350817   -0.297755    0.399431
C     -1.209142   -0.954196    0.503293
C     -0.746845    1.029020   -0.616726
C      1.090196   -0.654158   -0.393411
C     -2.088151    1.111539    0.074951
C     -0.114508   -0.024655    0.256303
O      1.611873   -1.652497    0.389554
O     -2.767340    2.128473    0.295871
O      0.271702    0.516945    1.487413
H      2.977254    0.126065   -1.158592
H      1.671691    1.357619   -0.969214
H      2.449903    0.698456    0.519839
H     -3.372943   -0.667700    0.521577
H     -1.144335   -2.030135    0.740098
H     -0.227501    1.998196   -0.587804
H     -0.942386    0.631028   -1.611379
H      0.839370   -0.962013   -1.418270
H      1.533619   -2.555327   -0.015699
H      0.383570   -0.254268    2.101736
