36

C      1.287625   -1.469643   -0.648960
C      2.748238   -2.084278   -0.153034
C      0.996986   -0.379013    0.308001
C      3.384364   -0.714188   -0.127100
C     -0.049912    0.699324   -0.186920
C      4.065886   -0.572935    1.216023
C     -1.267214    0.312147   -0.297705
C      4.555104    0.680312    1.247057
C     -2.585173   -0.104445   -0.434555
C      5.118954    2.088561    1.286961
C     -3.874362   -0.530538   -0.562377
C      5.606782    3.353727    1.338870
C     -5.093219   -0.922745   -0.698555
C      6.953064    3.149069    0.735272
C     -7.184295   -0.232085    0.068612
C     -6.367657   -1.336443   -0.821694
Br     8.126869    4.521961    0.479073
O     -6.757525    1.011554   -0.528267
O     -6.621908   -2.525411   -0.201022
H      0.608772   -2.335277   -0.570553
H      1.483129   -1.175958   -1.637378
H      3.056657   -2.638988   -0.989154
H      2.502967   -2.526580    0.769598
H      0.306433   -0.869046    1.165383
H      1.792459    0.174884    0.717370
H      3.430599    0.000781   -0.751113
H      0.198513    1.649623    0.329172
H      0.416823    0.927474   -1.284998
H      4.023093   -1.339395    1.831931
H      5.393178    4.263829    1.652888
H      7.257087    2.128351    0.588551
H     -6.759290   -0.199238    1.067710
H     -8.192407   -0.295018   -0.131285
H     -6.812010   -1.151970   -1.793942
H     -5.854791    1.209609   -0.063512
H     -5.893820   -2.768010    0.402406
