57

C      8.439354   -0.216427    1.120802
C      7.406449   -1.112874    0.450983
C      6.058955   -0.440449    0.617744
C      5.032573   -1.314769   -0.038564
C      3.632965   -0.740773    0.064368
C      3.508186    0.593520   -0.575459
C      2.069696    1.107451   -0.404082
C      1.055494    0.215869   -1.025023
C     -0.352060    0.719724   -0.937594
C     -2.229291    1.381932    0.574071
C     -3.091520   -0.885689    0.677735
C     -6.858112    0.802323    0.478847
C     -3.224308    0.431487   -0.047553
C     -0.790506    0.897513    0.465923
C     -5.622788    0.156739   -0.119058
C     -4.147861   -1.818997    0.109767
C     -5.483340   -1.204728    0.476149
N     -4.521816    1.034594    0.131218
O     -7.029204    2.039478   -0.157890
O     -0.048448    1.943582    1.053299
O     -3.951411   -1.880333   -1.265239
O     -5.573442   -1.145629    1.850009
H      8.080974   -0.056124    2.162906
H      9.449139   -0.641829    1.067741
H      8.352169    0.773684    0.612565
H      7.614097   -1.110410   -0.653754
H      7.416115   -2.138183    0.841291
H      5.874853   -0.383619    1.714869
H      6.141564    0.556261    0.153460
H      5.281223   -1.451027   -1.089627
H      5.014275   -2.281439    0.517232
H      3.251862   -0.697497    1.098752
H      3.003568   -1.472253   -0.526867
H      4.160782    1.366453   -0.156226
H      3.655228    0.521064   -1.691220
H      1.983169    2.170401   -0.705819
H      1.965840    1.117538    0.730093
H      1.253752    0.014493   -2.099797
H      1.151635   -0.787957   -0.507070
H     -0.425979    1.658630   -1.534888
H     -1.064544    0.019976   -1.474506
H     -2.377882    2.377395    0.151935
H     -2.449962    1.441564    1.669260
H     -3.269283   -0.782529    1.767576
H     -2.115350   -1.320321    0.429056
H     -6.623946    1.026889    1.540866
H     -7.753514    0.159788    0.369814
H     -3.020001    0.268271   -1.109829
H     -0.668369   -0.014551    1.042391
H     -5.816857    0.058322   -1.208837
H     -4.055934   -2.834556    0.529832
H     -6.294647   -1.843186    0.046473
H     -4.586420    1.830880   -0.543349
H     -6.368694    2.663412    0.245881
H     -0.404487    2.813338    0.744133
H     -4.704364   -1.548798   -1.793080
H     -5.929583   -2.037622    2.153507
