62

C      2.806752   -2.078442   -2.185132
C     -0.019521    0.769943    2.091702
C     -0.104155    2.813004    0.925545
C      2.738981   -0.927609    1.580831
C      3.612476    0.880734    0.376675
C      0.110088    1.460591    3.294216
C      0.022892    3.514188    2.100750
C      3.551658   -0.577110    2.667919
C      4.418982    1.242811    1.431911
C     -3.030015    0.552172    0.203637
C     -2.956447   -1.783068    0.496154
C     -4.980361   -0.587641    1.026292
C      0.534783   -0.206327   -3.693235
C     -1.375935   -1.539180   -4.089995
C     -0.127941    1.428010    0.896796
C      2.765692   -0.195233    0.421897
C     -2.316234   -0.622662    0.119080
C      0.131556    2.847609    3.299100
C      4.390999    0.511616    2.586286
C     -4.355038    0.558851    0.656269
C     -4.239937   -1.766592    0.933263
C     -0.276508   -0.885273   -4.569460
C      0.224633   -0.199248   -2.358589
C     -1.668706   -1.517328   -2.739932
C     -0.260110    0.735939   -0.338847
C     -0.935827   -0.609620   -0.355725
C     -0.876665   -0.846137   -1.837362
C      0.936162    0.443893   -1.177783
C      1.912922   -0.566540   -0.713478
O      0.261199    3.568789    4.497307
O      5.203244    0.851392    3.690277
O     -5.070073    1.746874    0.739379
O     -4.836609   -2.962446    1.300238
O      0.052124   -0.885225   -5.936551
O     -2.780491   -2.175340   -2.234915
O      2.807754   -0.746148   -1.816455
H      3.158430   -2.741464   -1.350608
H      3.418165   -2.179743   -3.100154
H      1.768041   -2.408759   -2.422242
H     -0.027110   -0.315402    2.186899
H     -0.185925    3.408865    0.009496
H      2.099013   -1.797899    1.709656
H      3.617681    1.456301   -0.566541
H      0.194177    0.936616    4.222708
H      0.038637    4.601330    2.093748
H      3.553591   -1.132782    3.592806
H      5.065700    2.098368    1.341340
H     -2.645560    1.522962   -0.058235
H     -2.414812   -2.706372    0.436730
H     -5.990627   -0.623491    1.376967
H      1.429289    0.334190   -4.030076
H     -2.026773   -2.077207   -4.747535
H     -0.908609    1.388023   -1.031051
H     -0.384389   -1.378586    0.217762
H      1.435224    1.366815   -1.559374
H      1.449425   -1.567306   -0.572035
H     -0.629336    3.798281    4.947321
H      5.177069    0.315847    4.524119
H     -5.610416    2.070404   -0.045040
H     -5.343935   -3.549422    0.666223
H      0.864486   -0.396181   -6.254104
H     -3.373761   -2.672638   -2.876845
