68

C     -6.137772   -3.020800    2.637886
C     -1.701660    5.503521    0.388108
C      6.875836   -0.265917   -0.400280
C     -4.230628   -2.644870   -1.940281
C      4.603089   -0.447393    0.511927
C     -0.501176    1.579942   -2.400101
C      8.199475    0.101895   -0.304848
C     -5.581828   -2.814340   -2.122999
C     -0.772090    2.630257   -3.287941
C      4.059757   -1.015584   -0.535447
C     -2.153646   -2.416652   -0.620172
C      6.478715    0.548957    1.786916
C     -4.448078   -2.739380    0.400312
C     -0.962028    3.002829   -0.559330
C     -2.288646   -0.194026    0.565316
C      0.429662   -1.476873    0.507946
C      6.001193   -0.051062    0.633296
C     -3.631126   -2.602936   -0.682716
C     -0.589010    1.742683   -1.050651
C     -1.779089   -0.993108   -0.578795
C     -0.302844   -0.708942   -0.537229
C      8.655465    0.694627    0.844151
C     -6.384517   -2.949611   -1.012860
C     -1.138121    3.867293   -2.808655
C      7.798350    0.919829    1.892005
C     -5.796488   -2.909269    0.245294
C     -1.225895    4.028143   -1.441974
C      2.635369   -1.379870   -0.563241
C     -0.331470    0.722938   -0.048313
O     10.002428    1.079356    0.966620
O     -7.737564   -3.120012   -1.172090
O     -1.397953    4.880961   -3.716671
O      8.242653    1.518806    3.062531
O      2.184933   -1.927944   -1.619773
O     -6.657085   -3.051069    1.320853
O     -1.601709    5.303942   -0.999101
O      1.791160   -1.157362    0.481821
O     -1.345604    0.765176    0.913132
H     -6.935072   -3.433499    3.298017
H     -5.234992   -3.656919    2.743568
H     -5.944260   -1.964206    2.905747
H     -0.686231    5.312275    0.836405
H     -2.026805    6.527082    0.632894
H     -2.435035    4.797294    0.852613
H      6.580087   -0.723894   -1.320549
H     -3.596929   -2.538259   -2.807862
H      3.931964   -0.266544    1.349626
H     -0.214339    0.608745   -2.770060
H      8.897016   -0.069310   -1.129056
H     -6.018277   -2.842675   -3.118142
H     -0.677964    2.416537   -4.357609
H      4.655737   -1.224386   -1.396658
H     -1.726533   -3.006847   -1.426524
H     -1.850721   -2.879427    0.366784
H      5.782951    0.710464    2.586453
H     -4.017997   -2.713251    1.383002
H     -1.045924    3.181059    0.510599
H     -3.215248    0.351324    0.287460
H     -2.555803   -0.829299    1.435241
H      0.051397   -1.212031    1.526187
H      0.346823   -2.572490    0.418638
H     -2.163194   -0.506563   -1.523583
H      0.194005   -0.850841   -1.503968
H      0.605322    0.993595    0.487003
H     10.647522    0.923424    0.210955
H     -8.143464   -3.147182   -2.079457
H     -1.672468    5.815875   -3.425499
H      9.206376    1.795816    3.155134
