42

C     -0.873399   -0.551167   -1.498511
C     -1.943248   -0.107498   -0.525860
C      0.465938   -0.074008   -0.944295
C     -3.269787   -0.581876   -1.087681
C      1.521311   -0.522658   -1.921381
C     -4.429487   -0.210238   -0.220428
C      2.826485   -0.079597   -1.428448
C     -4.280492   -0.824622    1.158872
C      3.906262    0.298570   -0.999989
C     -5.496729   -0.392415    1.961847
C      5.157069    0.742626   -0.514881
C     -6.722919   -0.875016    1.303911
C      6.215161    1.128299   -0.083280
C     -7.637995   -0.012245    0.895473
C      8.462812    0.448150    0.656820
C      7.504323    1.614172    0.467263
Br    -9.238142   -0.553408    0.043502
O      9.638756    0.955883    1.177932
O      7.311972    2.178497    1.730940
H     -0.845276   -1.627338   -1.662799
H     -1.075784   -0.061383   -2.463399
H     -1.906196    0.978157   -0.437615
H     -1.706990   -0.597908    0.444651
H      0.584690   -0.507547    0.052339
H      0.466550    1.030487   -0.840663
H     -3.385930   -0.064111   -2.072143
H     -3.249342   -1.673696   -1.273066
H      1.469428   -1.598267   -2.084598
H      1.352555    0.006981   -2.882097
H     -5.344195   -0.609012   -0.701973
H     -4.505433    0.896761   -0.132213
H     -4.284383   -1.919382    1.076319
H     -3.391346   -0.422407    1.672599
H     -5.425509   -0.916173    2.956405
H     -5.451543    0.697985    2.051745
H     -6.859986   -1.935696    1.162052
H     -7.464908    1.059652    1.055758
H      8.027732   -0.223835    1.418243
H      8.687644   -0.068504   -0.285603
H      7.925443    2.376366   -0.188591
H     10.440045    0.657334    0.692125
H      6.824840    1.480299    2.270720
