68

C     -6.120493   -2.113574    3.509656
C     -3.682702    3.854150    0.350596
C      5.845747    1.736660    0.362741
C     -4.079106   -3.230721   -1.046018
C      4.535158   -0.246615   -0.085335
C      1.053701    2.484374   -0.649636
C      7.008944    2.422949    0.519185
C     -5.431677   -3.550490   -1.043423
C      1.108337    3.799164   -0.178439
C      4.337874   -1.531716   -0.378686
C     -2.115412   -2.329695    0.168423
C      7.006048   -0.287394   -0.092221
C     -4.356924   -2.504161    1.201302
C     -1.290408    2.493166   -0.397052
C     -2.217497   -0.536418   -1.611903
C      0.524684   -1.779693   -0.432704
C      5.820341    0.380117    0.056589
C     -3.544418   -2.698366    0.103200
C     -0.147020    1.816811   -0.764254
C     -1.833029   -0.908365   -0.230260
C     -0.377619   -0.591786   -0.157472
C      8.206984    1.772430    0.374167
C     -6.262823   -3.366179    0.038456
C     -0.038938    4.470456    0.187203
C      8.185180    0.427481    0.070778
C     -5.698249   -2.826153    1.191051
C     -1.236383    3.797883    0.070567
C      2.975977   -2.068177   -0.499925
C     -0.207032    0.406571   -1.274815
O      9.417312    2.439028    0.526273
O     -7.618509   -3.699664    0.003704
O      0.003972    5.783194    0.658975
O      9.381823   -0.261891   -0.082736
O      2.851796   -3.285472   -0.777731
O     -6.534671   -2.641458    2.280530
O     -2.411462    4.421631    0.421778
O      1.856626   -1.301220   -0.324055
O     -1.226011    0.253259   -2.170330
H     -6.185903   -1.030328    3.603122
H     -6.759001   -2.557561    4.327933
H     -5.081102   -2.458820    3.782972
H     -3.999210    3.769859   -0.711400
H     -3.656842    2.857814    0.836227
H     -4.374440    4.483998    0.952381
H      4.892518    2.273924    0.483089
H     -3.508757   -3.418262   -1.949342
H      3.606743    0.323347    0.046341
H      1.967736    1.971839   -0.932800
H      6.972630    3.494852    0.760856
H     -5.855613   -3.973062   -1.956366
H      2.047120    4.329958   -0.086013
H      5.200558   -2.164151   -0.524159
H     -1.700477   -2.457587    1.199818
H     -1.537203   -3.061264   -0.455454
H      7.028381   -1.344218   -0.330811
H     -3.955289   -2.087263    2.113728
H     -2.218677    1.973022   -0.487679
H     -2.399790   -1.353802   -2.314080
H     -3.168232    0.072262   -1.602450
H      0.327739   -2.626523    0.236248
H      0.316908   -2.110590   -1.470080
H     -2.363118   -0.247963    0.518719
H     -0.077743   -0.156625    0.821808
H      0.747457    0.166793   -1.831083
H      9.440647    3.425131    0.748126
H     -7.964131   -4.086371   -0.864004
H     -0.866863    6.230237    0.913239
H      9.433835   -1.238758   -0.303591
