66

C      6.725091    2.674055   -1.427557
C      4.891732   -1.696347    0.597668
C      2.685538   -3.355841    1.125474
C     -5.942780   -0.472524   -0.697036
C     -2.740592    1.388749    2.507470
C      5.982261    1.604037   -2.204221
C      5.658661    0.477196   -1.247017
C     -2.454221   -1.486104   -1.544159
C     -2.444955   -2.086227   -0.217465
C      4.402024    0.182332   -1.072020
C     -3.821671   -0.907418   -1.872062
C     -1.659392   -1.694550    0.764779
C     -3.517521    3.087066    0.848064
C     -4.577267    2.071589    0.478813
C      2.636261   -1.119768   -0.065661
C      1.075117   -1.590202    1.846267
C      3.925924   -0.902040   -0.160153
C      1.965299   -2.119726    0.743056
C     -4.446312   -0.220340   -0.704846
C     -2.316886    2.402436    1.503512
C     -4.201592    1.236811   -0.683493
C      0.281720   -0.388345    1.558398
C     -0.723741   -0.539233    0.437246
C     -1.454570    1.884289    0.412994
O     -3.678523    1.778968   -1.638726
O      1.184574    0.619147    1.145508
O     -0.788326    2.794370   -0.176588
O     -1.421226    0.593633    0.123174
H      7.745975    2.316136   -1.254009
H      6.659887    3.645964   -1.923926
H      6.228015    2.772522   -0.427698
H      5.429524   -2.475605    0.023699
H      4.609153   -1.969133    1.623383
H      5.752518   -0.956193    0.814430
H      3.432992   -3.621374    0.375852
H      1.948408   -4.245112    1.049896
H      2.993887   -3.440461    2.186665
H     -6.453878    0.182308    0.015204
H     -6.119150   -1.556992   -0.501515
H     -6.319929   -0.278686   -1.721614
H     -3.660060    1.818017    3.008727
H     -1.984383    1.348742    3.316491
H     -3.062971    0.425877    2.118808
H      6.640144    1.236122   -3.007248
H      5.060918    2.030218   -2.626680
H      6.435007   -0.051909   -0.746305
H     -2.267460   -2.300468   -2.309984
H     -1.723228   -0.718174   -1.763071
H     -3.122286   -2.905402   -0.017632
H      3.654728    0.751754   -1.615135
H     -3.704076   -0.142334   -2.684451
H     -4.509901   -1.665694   -2.272591
H     -1.655317   -2.144753    1.753089
H     -3.975359    3.821671    1.540372
H     -3.197072    3.603894   -0.068296
H     -5.500491    2.646125    0.228671
H     -4.844305    1.432498    1.344737
H      2.020428   -0.433528   -0.711538
H      1.680206   -1.364212    2.773909
H      0.461156   -2.478931    2.167251
H      1.154017   -2.530665    0.004956
H     -4.041203   -0.666947    0.221720
H     -1.772212    3.206940    2.050675
H     -0.205271   -0.002271    2.472667
H     -0.186840   -0.903170   -0.454540
H      1.173803    1.397210    1.745221
