47

C     -1.633347    3.331107    2.706558
C     -2.151028   -2.077389    1.174406
C      2.180478   -1.652426    0.660613
C     -1.644068   -1.124070    0.081046
C     -1.138907   -1.940474    2.314008
C      0.796732   -2.186939    1.058835
C      2.752222   -1.463366   -1.657919
C      0.921655    0.584527   -2.138913
C     -1.523545    0.658149    1.716787
C      3.026681   -0.086381   -4.978916
C      1.948230   -0.959063   -0.661024
C      1.038482    0.056654   -0.892055
C      2.646163   -0.932973   -2.945696
C      1.741461    0.072370   -3.162718
C      0.155524    0.651456    0.106298
C     -0.811239    1.652009   -0.393884
C     -0.682542   -0.303511    0.861705
C     -1.638953    1.897640    0.869572
N      0.007018   -1.223981    1.727082
O     -0.247739    2.898866   -0.710346
O     -2.963839    2.174937    0.524980
O     -1.044604    2.946602    1.535877
O      3.281019   -1.198552   -4.141065
O      1.796460    0.452295   -4.497555
H     -1.027287    4.194445    3.109881
H     -2.705332    3.623870    2.574635
H     -1.523995    2.528271    3.457627
H     -3.126194   -1.723520    1.566012
H     -2.252526   -3.101361    0.818169
H      2.478147   -0.934825    1.425122
H      2.864126   -2.490982    0.497811
H     -2.536738   -0.523754   -0.251258
H     -1.235423   -1.660263   -0.770233
H     -0.821318   -2.907233    2.708600
H     -1.530003   -1.266637    3.095914
H      0.999501   -3.076867    1.700518
H      0.355457   -2.585000    0.116196
H      3.461717   -2.254761   -1.477000
H      0.223051    1.359050   -2.318057
H     -0.930453    0.795796    2.645441
H     -2.522364    0.206696    1.926350
H      3.798517    0.695313   -4.893582
H      2.958490   -0.449412   -6.005195
H      0.783277    1.189611    0.883099
H     -1.464474    1.272417   -1.208429
H      0.481990    3.013115   -0.023954
H     -3.540481    1.868543    1.264658
