50

C     -0.649049   -2.510270   -0.883066
C     -1.049426   -1.466666    1.260663
C     -4.075433    1.113022    1.725164
C     -5.185359    0.673271    1.033195
C      4.831949    0.111981    0.332678
C     -2.845326    0.842478    1.163910
C     -5.094883   -0.001152   -0.155770
C      3.850683    0.444970    1.448349
C      4.309695    0.868886   -0.886532
C      1.711622   -0.689652    0.757028
C     -0.761302    0.925261   -1.378406
C     -2.704896    0.156592   -0.046974
C     -3.841757   -0.262778   -0.703282
C      0.710595   -0.574806   -0.325897
C      1.686643    1.664452    1.219013
C     -2.181143   -0.925143   -2.030995
C      1.713071    1.274258   -1.411489
C     -0.624289   -1.160777   -0.128681
C      2.585718    0.570548    0.721332
C     -1.562251   -0.257917   -0.866449
C      0.475728    0.914515   -0.617381
N     -3.448367   -0.910349   -1.902080
N      0.546973    1.717154    0.569474
N      2.895292    0.943177   -0.667362
O      2.002717    2.518663    2.233094
O     -1.508908   -1.490451   -3.114996
O      1.691768    1.779412   -2.536654
H     -0.260504   -3.294353   -0.172695
H      0.062981   -2.502569   -1.728539
H     -1.675036   -2.782052   -1.185852
H     -0.769001   -2.518986    1.525387
H     -0.703601   -0.755178    2.008870
H     -2.167473   -1.482665    1.292616
H     -4.161501    1.648009    2.668776
H     -6.174788    0.873466    1.454690
H      5.861988    0.417304    0.595234
H      4.750100   -0.981610    0.151222
H     -1.947641    1.186472    1.680517
H     -5.967757   -0.354406   -0.713380
H      4.162350    1.417798    1.866369
H      3.848836   -0.352943    2.223802
H      4.598067    0.255721   -1.765029
H      4.821861    1.827631   -0.952711
H      1.294876   -0.709890    1.782683
H      2.355350   -1.599634    0.657423
H     -1.365610    1.835139   -1.134141
H     -0.623951    0.861321   -2.464874
H      1.179351   -1.045795   -1.244332
H      1.331560    3.230990    2.518781
H     -1.930521   -1.442451   -4.052400
