66

C      8.338318   -1.799627    0.769280
C      4.742576    0.444100   -2.222593
C      2.001231    2.821707   -1.201666
C     -6.074562   -2.460353   -0.521703
C     -3.420016    3.170758    0.255937
C      7.923450   -0.344926    0.868103
C      6.856962   -0.079612   -0.161395
C     -2.771433   -2.151000    1.359765
C     -1.463314   -2.483333    0.758223
C      5.656938    0.335058    0.156415
C     -3.839897   -2.802666    0.503929
C     -0.600845   -1.605005    0.302787
C     -4.964978    1.254611   -0.235628
C     -5.730791    0.508608    0.826968
C      3.384260    1.034195   -0.342082
C      1.030793    0.515756   -1.026399
C      4.583629    0.610249   -0.774807
C      2.253020    1.330307   -1.246536
C     -4.826201   -1.772919   -0.008795
C     -3.577624    1.645644    0.207686
C     -5.252754   -0.852214    1.074216
C      0.329906    0.712865    0.264799
C     -0.923483   -0.177180    0.379061
C     -2.631583    1.167024   -0.819401
O     -5.196146   -1.264095    2.216832
O      1.203187    0.430327    1.315039
O     -2.674745    1.785726   -1.939156
O     -1.737830    0.158902   -0.703228
H      7.591374   -2.347573    0.164364
H      9.331309   -1.899943    0.300352
H      8.341493   -2.216578    1.787178
H      5.745148    0.074490   -2.475777
H      4.015773   -0.302251   -2.628626
H      4.594797    1.419350   -2.768126
H      1.208783    3.154057   -1.878338
H      1.854478    3.130595   -0.146336
H      2.947133    3.310060   -1.535249
H     -6.991205   -1.873859   -0.300600
H     -6.014459   -2.554706   -1.619294
H     -6.182075   -3.435437    0.001329
H     -2.444628    3.493221   -0.139464
H     -3.520642    3.523417    1.281730
H     -4.190680    3.629129   -0.428909
H      7.522919   -0.087597    1.852170
H      8.780266    0.277092    0.592158
H      7.124015   -0.246046   -1.179835
H     -3.005043   -1.099312    1.421633
H     -2.839561   -2.574593    2.400903
H     -1.208061   -3.535762    0.693854
H      5.483375    0.476919    1.242390
H     -4.440942   -3.538955    1.096532
H     -3.409032   -3.292888   -0.404343
H      0.330348   -1.968187   -0.118270
H     -4.979054    0.707296   -1.200309
H     -5.525893    2.199979   -0.424475
H     -5.789140    1.133827    1.741067
H     -6.790925    0.438146    0.444920
H      3.312950    1.146419    0.729006
H      0.324494    0.713389   -1.880111
H      1.331414   -0.554611   -1.179748
H      2.635388    1.148070   -2.296845
H     -4.327946   -1.183176   -0.807728
H     -3.387752    1.260082    1.213658
H      0.023876    1.772037    0.408435
H     -1.381610    0.130112    1.338332
H      1.311248   -0.559126    1.398336
