44

C     -0.760596   -1.273373    0.952291
C      3.676095   -2.193783   -0.618819
C     -4.552816   -1.529222    2.280286
C      6.822678    1.393198    0.421849
C      1.758880   -0.325315   -0.183142
C      0.648196    0.560998    0.126872
C      2.889031    0.150933   -0.699704
C     -5.185508    0.459031   -1.263739
C     -4.940331   -0.186090   -0.081417
C     -1.586284    1.136549    0.928962
C     -0.498528    0.143983    0.641359
C      4.003275   -0.774867   -1.005392
C     -2.821378    0.924097    0.193834
C     -4.243183    1.342516   -1.720079
C     -3.771340    0.039727    0.646625
C     -3.077337    1.565098   -0.991634
C      5.172177   -0.331980   -0.193059
O     -4.471011    2.004524   -2.910317
O     -2.191617    2.462352   -1.523435
O      5.713079   -1.093802    0.650346
O     -3.563594   -0.625920    1.835102
O      5.713361    0.939154   -0.332365
H     -1.009607   -1.408834    2.047370
H      0.101806   -1.951388    0.801852
H     -1.585705   -1.697623    0.361254
H      3.533298   -2.248340    0.476294
H      2.861733   -2.622038   -1.211215
H      4.586982   -2.797246   -0.837346
H     -5.494378   -0.992410    2.461032
H     -4.753832   -2.264508    1.451658
H     -4.253158   -2.083251    3.191391
H      7.682789    1.429024   -0.288785
H      6.657661    2.422703    0.822857
H      7.068616    0.738631    1.262107
H      1.758745   -1.385243   -0.029601
H      0.744192    1.617508   -0.065352
H      3.007556    1.203170   -0.900342
H     -6.112173    0.254518   -1.802326
H     -5.697891   -0.886484    0.270579
H     -1.786353    1.116368    2.064703
H     -1.144907    2.143369    0.804054
H      4.230248   -0.705251   -2.091836
H     -3.799291    2.658124   -3.271207
H     -1.329580    2.671395   -1.067674
