33

C      1.093261   -0.984630   -0.962026
C      2.398416   -1.474458   -0.990956
C      1.867956    1.115401   -0.207090
C     -2.314290    1.324189    1.111272
C     -2.165766   -0.576390   -1.392185
C      5.318959    0.182087    0.315166
C      0.817589    0.306726   -0.572264
C     -1.343707    0.287035    0.646308
C      3.424270   -0.622449   -0.614184
C      3.182992    0.659134   -0.224233
C     -0.585864    0.772842   -0.560707
C     -3.573968   -0.448783    0.621882
C     -2.214345   -0.787134    0.080946
O     -3.781788   -0.980708    1.892498
O     -1.845508   -2.068327    0.458466
O     -3.571997    0.940620    0.690333
O     -1.278805    0.415547   -1.682541
O      4.810687   -0.840495   -0.547054
O      4.403854    1.235113    0.082459
H      0.328175   -1.687368   -1.264763
H      2.592022   -2.490268   -1.299853
H      1.683298    2.136319    0.104340
H     -2.093488    2.303667    0.595486
H     -2.291225    1.462346    2.209100
H     -1.962295   -1.509351   -1.958843
H     -3.179182   -0.237293   -1.757676
H      5.293645   -0.114428    1.369603
H      6.334410    0.426425   -0.054721
H     -0.669633   -0.074415    1.448682
H     -0.609116    1.901448   -0.505541
H     -4.391481   -0.769195   -0.053245
H     -3.005755   -0.776144    2.469158
H     -2.671322   -2.595116    0.552184
