37

C     -4.187570   -0.509460   -1.200312
C     -4.082420    0.714461    0.900788
C      1.763996    0.547022    3.028549
C      4.946151   -0.098388   -0.479159
C      4.668592   -0.737989   -1.668771
C      3.893269    0.354565    0.287117
C      3.368606   -0.921262   -2.084079
C     -1.106394    0.746269    0.702266
C      2.577968    0.159347   -0.150997
C      0.213922    0.386244    0.121722
C      2.288851   -0.477410   -1.336119
C     -2.052980    0.502492   -0.418216
C      1.514666    0.600048    0.592616
C     -0.008914   -0.252968   -1.063905
C     -3.305379   -0.240070    0.008732
N      1.057459   -0.689114   -1.799011
O     -3.033546   -1.439224    0.612072
O      1.699403    1.253094    1.801221
O     -1.388336   -0.355520   -1.335619
H     -5.205805   -0.815513   -0.890747
H     -3.758669   -1.301736   -1.848222
H     -4.313997    0.391485   -1.831666
H     -3.929137    1.735538    0.484127
H     -5.163334    0.479979    0.927386
H     -3.627173    0.654956    1.903594
H      2.811637    0.477775    3.386704
H      1.342743   -0.469476    2.857378
H      1.132872    1.064812    3.772966
H      5.982803    0.037009   -0.167687
H      5.476191   -1.110801   -2.303042
H      4.055133    0.863772    1.230568
H      3.149887   -1.428605   -3.027596
H     -1.131982    1.743929    1.142875
H     -1.337469    0.013931    1.530153
H     -2.287093    1.448521   -0.906860
H      0.868490   -1.180541   -2.711762
H     -2.892441   -2.147170   -0.067064
