51

C     -0.337919    0.771558   -1.527858
C     -6.346454    2.449817    0.269937
C     -4.182195   -2.108442   -2.003772
C     -2.464843    1.017527    1.473587
C      3.210093   -1.451066   -0.552258
C     -3.724113    1.497127    1.094845
C      4.337740   -2.170696   -0.159785
C     -2.723999   -0.753481   -0.069010
C      4.305293    0.553567    0.004098
C      0.816048    1.388887    0.953412
C      7.555344   -0.806877    0.567793
C      0.699142   -0.072476   -0.814196
C     -1.961953   -0.119601    0.883940
C      3.151931   -0.083102   -0.486185
C      0.546400   -0.047678    0.693581
C     -4.480486    0.853712    0.137722
C      5.454314   -1.509220    0.317845
C     -3.973055   -0.289516   -0.453768
C      5.425507   -0.133104    0.395765
C     -0.660839   -0.651863    1.251060
C      1.992473    0.752973   -0.880159
O     -0.570320   -0.570074    2.661607
O     -5.728308    1.314237   -0.249116
O     -4.727604   -0.943078   -1.417635
O      1.818361    1.738054    0.093769
O      6.705075   -1.932131    0.777496
O      6.678353    0.251254    0.908450
H     -0.971613    0.110194   -2.179836
H     -0.891860    1.455719   -0.895283
H      0.197000    1.419960   -2.282733
H     -6.187664    2.470351    1.372895
H     -7.430480    2.433170    0.035638
H     -5.911104    3.335482   -0.232487
H     -3.917371   -2.836755   -1.201117
H     -4.968730   -2.577357   -2.659832
H     -3.261598   -1.899755   -2.589583
H     -1.958503    1.581665    2.223448
H      2.399271   -2.048819   -0.909272
H     -4.130649    2.381131    1.543729
H      4.359833   -3.250341   -0.221112
H     -2.379357   -1.654091   -0.567976
H      4.294439    1.627609    0.069416
H     -0.067642    2.061889    0.859899
H      1.238426    1.483245    1.997715
H      8.458394   -0.843059    1.176955
H      7.769730   -0.800285   -0.530189
H      0.774856   -1.055409   -1.249525
H      1.438116   -0.615479    1.081447
H     -0.596203   -1.772025    1.053250
H      2.184029    1.162431   -1.872919
H     -1.255304   -1.115780    3.099381
