113

C     -1.401543    3.792815   -0.516641
C     -3.376027    3.531523   -1.764126
C      2.453579    1.895378   -2.673600
C      2.660267    4.130058   -2.033377
C     -2.294503   -3.935849    1.372929
C     -2.455173   -2.657079   -0.561106
C      0.247121   -4.817250   -0.559123
C      0.405357   -2.941174   -1.920815
C     -0.956185    4.734590   -1.413337
C     -2.939505    4.471689   -2.665441
C      1.833847    2.296812   -3.851855
C      2.047640    4.547745   -3.194764
C     -3.339660   -4.691080    0.926409
C     -3.505331   -3.389306   -1.045112
C     -0.330476   -5.554110   -1.532420
C     -0.187789   -3.660921   -2.956404
C     -3.574553   -0.447836    2.103843
C     -4.824109   -0.353431    0.101727
C      3.810023    2.773469    2.373819
C      4.161888    0.440718    2.218454
C     -5.683608   -1.481540    1.970594
C      5.097466    1.672938    4.035527
C      0.490336    0.450719    2.527174
C      3.148402   -2.019098   -1.019396
C     -1.003269    2.216852    3.143735
C      4.893174   -0.608155   -1.742182
C     -2.613837    3.159517   -0.649377
C      2.887943    2.783598   -1.729318
C     -1.794944   -2.847328    0.612790
C      0.650706   -3.467681   -0.691426
C     -3.705260   -0.036751    0.803329
C      3.616639    1.589116    1.719917
C     -1.700046    5.101016   -2.501994
C      1.627805    3.611159   -4.120652
C     -3.959609   -4.437468   -0.276048
C     -0.556880   -4.972151   -2.760768
C     -4.579721   -1.192189    2.724488
C     -5.851636   -1.084167    0.655578
C      4.547092    2.830356    3.530406
C      4.902218    0.491927    3.379440
C      0.128683    1.503431    3.374764
C      4.306106   -1.847247   -1.769219
C     -0.312141    0.153955    1.468651
C      2.529752   -1.054568   -0.248349
C     -1.837000    1.925093    2.063476
C      4.301355    0.370487   -0.982848
C     -2.576109    0.795203    0.209088
C      2.838825    1.484693    0.431870
C     -1.471887    0.883608    1.235457
C      3.153328    0.196022   -0.241347
C      0.024144   -1.036543    0.521539
C      1.451678   -1.405554    0.637568
C     -3.169695    2.202633    0.287231
C      3.599027    2.472341   -0.491032
C     -0.698036   -2.151281    1.208848
C      1.240284   -2.935412    0.499580
O     -1.283137    6.056511   -3.434508
O      1.011081    4.045716   -5.298819
O     -5.026386   -5.198406   -0.743382
O     -1.149279   -5.738392   -3.749708
O     -4.474403   -1.616093    4.023583
O     -7.002260   -1.422021   -0.028366
O      4.749705    4.044285    4.206749
O      5.447396   -0.689782    3.868787
O      0.968902    1.787482    4.458053
O      4.833862   -2.894437   -2.509613
O     -3.024865    2.528185    1.656818
O      4.757495    1.691561   -0.841916
O      0.311683   -3.116435    1.544143
H     -0.794695    3.516953    0.341349
H     -4.336910    3.060841   -1.916626
H      2.571244    0.852623   -2.522681
H      2.977881    4.873806   -1.327921
H     -1.853304   -4.182584    2.316601
H     -2.114838   -1.836621   -1.175079
H      0.404563   -5.334344    0.401608
H      0.670273   -1.915718   -2.125106
H     -0.000871    5.191335   -1.250251
H     -3.510009    4.774552   -3.533027
H      1.502313    1.550765   -4.579613
H      1.898094    5.603030   -3.378219
H     -3.746130   -5.534772    1.489005
H     -3.982541   -3.166316   -2.008767
H     -0.631638   -6.604741   -1.390941
H     -0.345868   -3.170680   -3.896540
H     -2.714646   -0.236669    2.725803
H     -4.895980   -0.012602   -0.922947
H      3.381780    3.678173    1.982026
H      4.044039   -0.517724    1.734807
H     -6.474670   -2.055272    2.429490
H      5.694929    1.672619    4.958948
H      1.398003   -0.094953    2.753300
H      2.821586   -3.074726   -1.064059
H     -1.292923    3.041489    3.801762
H      5.789704   -0.454864   -2.316656
H     -2.271565    0.478347   -0.762910
H      1.832090    1.805637    0.454851
H     -0.268609   -0.730699   -0.442674
H      1.846349   -1.338057    1.673619
H     -4.300288    2.135465    0.154608
H      3.959188    3.341684    0.054097
H     -1.043881   -1.865649    2.265673
H      2.161476   -3.435969    0.787648
H     -0.756744    5.785468   -4.243332
H      1.605597    4.236813   -6.098257
H     -5.954100   -4.892962   -0.480512
H     -1.344083   -5.378986   -4.674656
H     -4.063999   -2.505707    4.296197
H     -7.709718   -1.951254    0.423708
H      5.294530    4.054344    5.047885
H      4.866080   -1.214637    4.514698
H      1.712887    2.452675    4.315504
H      5.499462   -3.562583   -2.190396
