75

C     -6.365948    4.341201   -0.815561
C     -0.615597   -3.335531   -3.610312
C     -2.585429   -2.321986    3.348078
C     -1.990215    2.744837    1.439298
C     -3.916821    3.058117   -0.164648
C     -1.001299   -1.483406   -1.351404
C     -1.642974   -1.194100    0.892957
C     -2.852721    1.239496   -1.885274
C      0.313788    3.593095    1.907779
C      5.220736   -2.694419    1.932396
C      1.346344    1.167915    0.608976
C     -2.728291    2.458627    0.187536
C     -1.188727   -0.636503   -0.282433
C     -0.517881    2.802468    0.970419
C     -2.187698    1.540622   -0.676873
C     -0.133215    1.376999    0.760938
C     -4.040468    1.870919   -2.186177
C     -4.591766    2.793834   -1.325262
C     -1.248451   -2.844946   -1.285197
C     -1.901969   -2.552208    0.999895
C      4.787121   -1.570932    0.991957
C     -0.914443    0.826575   -0.404418
C     -1.704541   -3.376984   -0.089554
C      5.237142   -1.976832   -0.389236
C      4.668989   -1.062936   -1.456830
C      3.198929   -0.908339   -1.169182
C      2.985100   -0.399625    0.253118
O      1.635719    3.665381    1.489457
O      4.913178   -2.385426    3.247296
O     -4.664018    1.537180   -3.400825
O     -1.959383   -4.752003   -0.005896
O      6.614106   -2.023903   -0.391617
O      4.831012   -1.680063   -2.682656
O      2.564446   -0.077278   -2.092724
O     -5.789567    3.388162   -1.695980
O     -1.069414   -3.712383   -2.337966
O     -2.351334   -3.074452    2.179171
O      1.616141   -0.189165    0.401005
O      3.427248   -1.402346    1.112416
H     -7.211359    4.877550   -1.276467
H     -6.632732    3.884396    0.172360
H     -5.613816    5.145025   -0.557159
H     -0.935738   -4.033964   -4.409300
H      0.490625   -3.331761   -3.607738
H     -1.008212   -2.340914   -3.895961
H     -3.136370   -1.369623    3.142933
H     -1.599324   -2.032511    3.772928
H     -3.178985   -2.901980    4.098980
H     -2.097600    1.899700    2.162952
H     -2.285800    3.690098    1.917960
H     -4.332944    3.770859    0.510567
H     -0.642198   -1.107790   -2.315616
H     -1.822340   -0.604037    1.785877
H     -2.435509    0.515928   -2.576010
H      0.250320    3.235466    2.956836
H     -0.067979    4.647844    1.892127
H      6.319330   -2.765006    1.842592
H      4.731913   -3.624605    1.575001
H      1.801464    1.837084   -0.121179
H      1.793224    1.403953    1.614323
H     -0.501841    3.302870   -0.031083
H     -0.422124    0.834225    1.702493
H      5.326044   -0.626140    1.234743
H     -0.275542    0.932804   -1.341406
H      4.826954   -2.988829   -0.603171
H      5.214316   -0.105114   -1.442017
H      2.739661   -1.917357   -1.210070
H      3.553360    0.540999    0.334159
H      1.851980    4.527998    1.046605
H      4.487346   -1.486396    3.315167
H     -5.539282    2.005244   -3.618668
H     -2.288092   -5.135108    0.855428
H      7.022814   -1.220890   -0.802216
H      4.030874   -1.550026   -3.230207
H      2.189734   -0.659654   -2.800182
