42

C     -1.580157    2.652220   -2.054252
C      2.958518    0.832000   -2.990768
C     -2.695667    2.059169   -1.787400
C      1.191273   -2.213105    2.510530
C      0.310870   -1.057850    3.051974
C      3.191372   -1.817817    1.066929
C     -0.889798    0.552291    0.016057
C      1.690041   -0.308606   -0.707724
C     -4.492747    1.649698   -0.237655
C     -4.208189    0.439346    1.700314
C     -3.135735    1.471592   -0.539686
C      1.840703   -1.624726    1.294878
C     -2.311806    0.748129    0.324774
C      1.088092   -0.884386    0.429633
C     -2.853048    0.224087    1.460072
C     -0.359119   -0.698903    0.669793
C      3.755602   -1.247520   -0.047752
C      3.039564   -0.498018   -0.940348
C     -2.062927   -0.577946    2.407467
N     -5.004196    1.128742    0.880141
N     -0.699782   -0.770119    2.053352
O      5.115405   -1.438965   -0.281890
O     -2.554437   -1.048295    3.436688
O      3.686002    0.053889   -2.057853
H     -0.809193    2.783645   -1.330656
H     -1.392285    3.041919   -3.044231
H      3.608479    1.021315   -3.854326
H      2.730446    1.840233   -2.547070
H      2.022560    0.317685   -3.288854
H     -3.418627    1.981048   -2.624640
H      0.540483   -3.061185    2.273220
H      1.930497   -2.408697    3.293378
H      1.002657   -0.215720    3.216771
H     -0.141340   -1.340734    4.016606
H      3.729407   -2.411222    1.784980
H     -0.727613    0.487518   -1.090980
H     -0.316933    1.402417    0.452279
H      1.128895    0.281368   -1.409988
H     -5.123565    2.227028   -0.941380
H     -4.599299    0.001649    2.623149
H     -0.869929   -1.598637    0.181876
H      5.685524   -1.974533    0.332951
