43

C      2.953532    1.316758   -0.659311
C      3.056888    0.450657    1.611787
C     -0.150079   -1.284611   -2.683492
C     -2.908121    1.947371    0.814042
C      1.734028   -1.262185   -0.086285
C     -2.249732   -1.428730    0.467789
C      0.518809   -2.095258   -0.497586
C     -2.221938   -0.298381    1.448232
C      2.118106    1.039410    0.548256
C      1.033473    0.039559    0.340273
C     -1.774355   -1.109421   -0.892293
C      0.102525    0.277903   -0.751037
C     -1.185183    0.924066   -0.495541
C     -0.339901   -1.132489   -1.166428
C     -1.693555    0.996312    0.885656
O     -0.814755    1.623300    1.776367
O     -2.136725    0.199495   -1.239577
H      2.410294    1.673671   -1.535324
H      3.667695    2.148393   -0.384573
H      3.626933    0.448505   -0.876686
H      2.470068    0.009055    2.450917
H      3.695326    1.258695    1.978614
H      3.712834   -0.335259    1.167012
H      0.861130   -0.931500   -2.947434
H     -0.945434   -0.678397   -3.175042
H     -0.276540   -2.378930   -2.893462
H     -2.628397    2.894574    0.342722
H     -3.649823    1.409121    0.187348
H     -3.310351    2.067838    1.845615
H      2.336521   -1.125921   -0.988070
H      2.228548   -1.750850    0.751595
H     -1.761524   -2.303873    0.940373
H     -3.332926   -1.749499    0.363610
H      0.887458   -2.895083   -1.205276
H      0.173063   -2.605695    0.389685
H     -1.556572   -0.546636    2.330130
H     -3.228068   -0.159341    1.949667
H      1.782562    2.007883    0.960910
H      0.590971   -0.189139    1.327037
H     -2.299255   -1.761468   -1.651180
H      0.603083    0.736036   -1.606001
H     -1.184463    1.955677   -0.932230
H     -0.916148    2.598388    1.789192
