33

C      1.211596   -1.501208   -0.121595
C      2.510322   -1.951632   -0.225256
C      1.940252    0.700009   -0.505363
C     -2.213279   -1.387416   -0.416056
C     -1.795702    1.860097    0.647016
C      5.537886    0.013859   -0.578013
C      0.892334   -0.169028   -0.258187
C     -1.457304   -0.486606    0.526733
C      3.555980   -1.064623   -0.474531
C      3.251776    0.272807   -0.613713
C     -0.455052    0.375114   -0.160802
C     -3.537498    0.392452   -0.224833
C     -2.519683    0.558869    0.872458
O     -4.792987    0.830110    0.125092
O     -3.021644    0.401088    2.129585
O     -3.515382   -0.959900   -0.463814
O     -0.435741    1.523130    0.628914
O      4.926593   -1.240510   -0.623667
O      4.470900    0.899145   -0.850235
H      0.387037   -2.176129    0.071696
H      2.737086   -2.986799   -0.116451
H      1.747985    1.740764   -0.619252
H     -1.723445   -1.477670   -1.407576
H     -2.211595   -2.416061    0.019657
H     -1.999389    2.600049    1.440782
H     -2.007084    2.271420   -0.381721
H      6.286357    0.167227   -1.388187
H      6.030787    0.234420    0.402773
H     -1.084964   -1.007307    1.409441
H     -0.828592    0.613313   -1.173890
H     -3.151288    0.905006   -1.139414
H     -4.758733    1.824247    0.163016
H     -3.977528    0.641763    2.129399
