45

C     -2.080374   -2.550522    1.458881
C      4.366848   -1.442135    1.822881
C     -5.611432    1.720682   -1.755037
C      5.605501   -1.193167    1.268910
C     -6.062762    1.353600   -0.502166
C      3.258152   -0.788010    1.338653
C     -4.277154    1.516357   -2.082018
C      5.738586   -0.291720    0.232253
C     -5.175060    0.795226    0.386321
C      1.048652    0.987497   -0.171496
C      3.203606    1.660896   -1.349858
C     -1.255715   -1.730911    0.812398
C      2.495188    0.929803   -0.389986
C      3.406450    0.120464    0.289990
C     -3.404372    0.957923   -1.184242
C      4.631136    0.388043   -0.280808
C     -3.833693    0.585259    0.069562
C      0.282594   -0.067500   -0.906213
C     -1.568940   -0.283711    0.712215
C      0.641622   -1.459224   -0.582439
C     -1.995808    0.724662   -1.515557
N      4.467798    1.300444   -1.242112
N     -0.072402   -2.190825    0.200427
N     -2.934663    0.017216    0.998988
N     -1.126399    0.142644   -0.585937
O      1.808992   -1.949578   -1.180827
O     -1.622308    1.068413   -2.653913
H     -2.963357   -2.170369    1.903569
H     -1.878037   -3.613284    1.548723
H      4.228991   -2.137177    2.631078
H     -6.260983    2.159950   -2.486503
H      6.463482   -1.716284    1.662132
H     -7.107835    1.520742   -0.265112
H      2.273726   -0.968829    1.759807
H     -3.897147    1.793262   -3.052737
H      6.702576   -0.091909   -0.207351
H     -5.523452    0.506716    1.368967
H      0.822844    0.914198    0.930894
H      0.722402    2.023222   -0.488034
H      2.760578    2.383335   -2.038825
H      0.387734    0.100148   -2.023033
H     -0.922407    0.213864    1.496471
H      5.270519    1.663403   -1.821342
H     -3.314837   -0.182130    1.949490
H      2.301161   -2.720682   -0.744045
