45

C     -2.524896   -3.163722    0.879345
C      5.482729    0.773119   -1.587563
C     -5.223724    2.783110   -0.358621
C      6.347175    0.489909   -0.554791
C     -6.035829    1.675068   -0.535457
C      4.117560    0.740974   -1.354180
C     -3.869792    2.614378   -0.257479
C      5.911574    0.172740    0.710725
C     -5.494389    0.391473   -0.612994
C      1.096801    0.539463   -0.356579
C      2.541183   -0.003274    1.739982
C     -1.706562   -2.442012    0.161988
C      2.357427    0.332829    0.419753
C      3.648044    0.426965   -0.096833
C     -3.350290    1.349626   -0.333811
C      4.551405    0.147873    0.915234
C     -4.125344    0.225473   -0.510930
C      0.041073   -0.339792    0.224270
C     -2.090170   -1.247678   -0.652980
C      0.522434   -1.737534    0.101911
C     -1.899892    1.140638   -0.177973
N      3.853777   -0.112560    2.030650
N     -0.296554   -2.727955    0.074048
N     -3.490762   -1.026766   -0.608016
N     -1.295143   -0.119370   -0.199690
O      1.914462   -2.010093    0.011310
O     -1.224144    2.164168   -0.022070
H     -2.161387   -4.002592    1.430389
H     -3.562589   -2.914248    0.924166
H      5.843627    1.021654   -2.594564
H     -5.659928    3.782520   -0.299567
H      7.406603    0.527371   -0.784553
H     -7.092942    1.855387   -0.609036
H      3.389912    0.957226   -2.123333
H     -3.201722    3.440878   -0.123368
H      6.658328   -0.033013    1.465971
H     -6.119367   -0.468603   -0.749817
H      1.330707    0.107034   -1.375600
H      0.924763    1.600862   -0.385300
H      1.766533   -0.161515    2.456194
H      0.098095   -0.149084    1.361429
H     -1.805750   -1.452965   -1.725144
H      4.290226   -0.361241    2.954830
H     -4.114891   -1.866450   -0.657151
H      2.251629   -2.920267   -0.295379
