30

C     -3.641932    0.308890   -0.580439
C     -2.918149   -1.011920   -0.672066
C      2.657309   -0.576653    0.951363
C      3.325684    0.281699   -0.116661
C      1.276344   -0.928595    0.385987
C      2.365354    1.253654   -0.722253
C     -0.816253    0.194085   -0.380092
C      0.463055    0.336169    0.425236
C     -1.671039   -0.924627    0.167401
N      1.193999    1.500487    0.052194
O     -1.975758   -0.658743    1.503652
H     -3.137147    0.997432   -1.301168
H     -3.575234    0.740557    0.457671
H     -4.696544    0.202199   -0.896181
H     -3.550431   -1.870028   -0.376960
H     -2.615488   -1.181559   -1.717288
H      2.498302    0.060395    1.832977
H      3.234069   -1.480299    1.173894
H      3.639023   -0.445709   -0.921353
H      4.210858    0.735649    0.343989
H      0.801590   -1.735468    0.941615
H      1.419958   -1.252792   -0.671296
H      2.912982    2.235700   -0.812833
H      2.085683    0.962979   -1.758686
H     -0.517396   -0.016623   -1.422664
H     -1.343590    1.165036   -0.343312
H      0.132750    0.469655    1.495636
H     -1.102708   -1.870238    0.046794
H      1.316957    2.181553    0.816996
H     -1.972247    0.327116    1.696556
