39

C      3.800257   -1.345441    0.103000
C     -1.667142   -1.833352   -1.213646
C     -2.163176    1.589192   -0.364974
C     -3.910220    0.829257    1.104061
C      3.770470   -0.443715   -1.087664
C     -2.408351   -1.571933    0.023851
C      3.686815    1.014962   -0.729668
C      2.442261    1.340910    0.068051
C     -0.548601   -0.828860    1.522838
C     -2.368956    0.819815    0.885228
C     -1.874483   -0.567455    0.999614
C      1.224665    1.002350   -0.708156
N      0.507164   -0.480114    0.886879
N      0.332326    0.156859   -0.321391
O      1.032483    1.634122   -1.926682
H      2.831700   -1.883106    0.205778
H      4.567055   -2.131002   -0.045687
H      3.996544   -0.717740    0.998318
H     -2.227892   -2.675604   -1.747826
H     -0.666231   -2.323341   -1.024722
H     -1.538227   -1.076458   -1.960308
H     -3.052809    2.297617   -0.539770
H     -2.096451    1.050825   -1.300144
H     -1.326079    2.325064   -0.316497
H     -4.207265    0.019902    1.778052
H     -4.326202    0.593227    0.100459
H     -4.248110    1.825753    1.381037
H      2.938410   -0.720832   -1.798472
H      4.700516   -0.584563   -1.675082
H     -3.497708   -1.360143   -0.126878
H     -2.443156   -2.573255    0.570032
H      4.577114    1.253766   -0.112599
H      3.742451    1.602631   -1.667797
H      2.490322    0.863189    1.046345
H      2.434619    2.444622    0.219223
H     -0.443994   -1.350317    2.504438
H     -2.044495    1.472764    1.733240
H     -2.524116   -0.909195    1.950002
H      0.508493    1.239601   -2.690409
