29

C     -1.938066    1.232370    1.084876
C     -1.796814    0.299772   -1.203985
C      1.349175   -1.238646   -0.643604
C     -0.029129   -1.754812   -0.287708
C      0.374580    0.009262    1.443705
C      1.202218    0.247092   -0.901593
C      0.306448    0.841630    0.152806
C      2.492929    0.956723   -0.826729
C     -1.112585    0.422485    0.080782
C     -0.662009   -0.886224    0.748920
O      2.898872    1.574950   -1.840022
O      3.290822    0.981281    0.306604
O     -1.588675   -1.452965    1.579804
H     -1.385015    2.148581    1.405557
H     -2.209745    0.628042    1.950758
H     -2.878286    1.594324    0.618681
H     -1.210429    0.219540   -2.108834
H     -2.481916    1.187649   -1.340384
H     -2.511291   -0.573923   -1.153375
H      2.120904   -1.490599    0.081061
H      1.635567   -1.764413   -1.601568
H     -0.647109   -1.658093   -1.225425
H     -0.034300   -2.830615   -0.038220
H     -0.135777    0.530501    2.274320
H      1.330299   -0.454156    1.648352
H      0.812099    0.347282   -1.915965
H      0.525292    1.889183    0.409230
H      4.273155    1.219656    0.194188
H     -1.991212   -2.225878    1.107768
