31

C      4.596349   -0.744151    0.862897
C     -1.908286   -0.460587   -1.455892
C      3.378994    0.050264    0.363944
C      2.333121   -0.956511    0.023624
C      1.045961   -0.332466   -0.501064
C      0.417491    0.583132    0.481335
C     -0.817483    1.264164    0.056631
C     -2.004420    0.473114   -0.314209
O     -5.061335   -1.074149    1.691442
O     -4.719248    1.472611    0.406786
O     -2.455498   -0.251767    0.799606
P     -3.994280    0.233787    1.355200
H      4.313057   -1.762487    1.157753
H      5.042098   -0.229871    1.742046
H      5.344575   -0.800263    0.024538
H     -1.133169   -0.259698   -2.204070
H     -1.878406   -1.518824   -1.097721
H     -2.884612   -0.388802   -2.047724
H      3.681382    0.639757   -0.519408
H      3.050397    0.746644    1.180570
H      2.723443   -1.602079   -0.780029
H      2.133906   -1.593901    0.913515
H      0.399239   -1.223121   -0.738857
H      1.296256    0.184549   -1.439996
H      1.178884    1.369843    0.787801
H      0.247133    0.028567    1.455047
H     -0.521511    1.951490   -0.805342
H     -1.133677    2.026091    0.842530
H     -2.839673    1.197836   -0.518482
H     -5.617797   -1.341211    0.904312
H     -4.212891    2.318037    0.540456
