53

C     -1.495908    0.746436   -2.769658
C      0.786644    4.646794   -0.148702
C      6.958607   -1.615589   -0.363574
C     -6.575229   -1.894720    1.705370
C      1.739660    3.725217   -0.553862
C     -0.483661    4.161818    0.084463
C      6.873386   -1.244386    0.963572
C      5.788841   -1.801235   -1.107268
C     -5.802319   -0.912756    2.261384
C     -6.140697   -2.553830    0.592097
C      1.422969    2.391321   -0.712987
C     -0.790006    2.826629   -0.077438
C      5.621778   -1.064084    1.527850
C      4.560555   -1.610412   -0.503569
C     -4.566690   -0.555767    1.722420
C     -4.905705   -2.203705    0.045586
C      0.731003   -0.440636   -1.167091
C      0.174285    1.908814   -0.484761
C      4.454728   -1.240283    0.817760
C     -4.127875   -1.217043    0.603402
C     -0.274617    0.525584   -0.616738
C      1.959462   -1.078479    0.815186
C     -2.775451    0.133294   -0.737784
N      1.911639   -0.515518   -0.332614
N      3.220411   -1.042835    1.477374
N     -2.885683   -0.898413    0.013613
N     -1.530266    0.457199   -1.332050
S      0.545317   -1.874596    1.581403
S     -4.213621    1.147642   -1.018516
H     -1.004583    1.745465   -2.869989
H     -0.924681   -0.057104   -3.253472
H     -2.533797    0.821087   -3.172094
H      1.032793    5.695435   -0.022735
H      7.944408   -1.758460   -0.811466
H     -7.539099   -2.166720    2.133566
H      2.736612    4.124372   -0.733572
H     -1.228714    4.901672    0.404816
H      7.756817   -1.088405    1.582471
H      5.887549   -2.090493   -2.139730
H     -6.195287   -0.413695    3.153990
H     -6.735352   -3.330940    0.138614
H      2.185953    1.725289   -1.026225
H     -1.810592    2.530255    0.126522
H      5.599890   -0.767970    2.589317
H      3.696208   -1.774804   -1.131979
H     -3.998457    0.228953    2.205159
H     -4.605529   -2.764469   -0.847497
H      0.958262   -0.311879   -2.226071
H      0.248385   -1.460455   -1.082956
H     -0.517457    0.128034    0.417160
H      3.201651   -0.861903    2.523933
H      0.649113   -3.273717    1.506190
H     -4.985649    1.313993    0.132606
