37

C     -1.848739   -2.207822   -1.133118
C      1.065221    1.479567    1.101342
C     -4.929187    0.931048    1.379051
C      5.601723   -0.285934    0.061853
C     -4.776656   -0.436870    1.283634
C     -4.047112    1.740839    0.685770
C      5.147881    1.007031    0.219227
C      4.707550   -1.332326   -0.095014
C     -3.770138   -0.964828    0.520319
C     -3.029624    1.198745   -0.087525
C      3.794434    1.246998    0.216935
C      3.354465   -1.095667   -0.095381
C     -1.764880   -0.708389   -1.002478
C     -2.892615   -0.157659   -0.167545
C      2.887106    0.187612    0.059037
C      0.593265   -0.045073   -0.813953
N     -0.581897   -0.209277   -0.459473
N      1.519506    0.527192    0.103027
O      0.978798   -0.422210   -2.096065
H     -1.778713   -2.645199   -0.136811
H     -2.832470   -2.435499   -1.620335
H     -1.008963   -2.541107   -1.778896
H      0.378830    0.994831    1.836487
H      0.567512    2.302353    0.553412
H      1.869890    1.906672    1.702564
H     -5.703208    1.366246    1.971317
H      6.661923   -0.442175    0.070969
H     -5.467336   -1.055293    1.820459
H     -4.146581    2.819917    0.737661
H      5.847225    1.841957    0.342875
H      5.090613   -2.346640   -0.220073
H     -3.651856   -2.038241    0.455579
H     -2.372417    1.869378   -0.616734
H      3.417690    2.270631    0.333351
H      2.616122   -1.881677   -0.202039
H     -1.916355   -0.282910   -2.021140
H      0.418994   -0.156219   -2.908289
