36

C      5.109527    1.122346    0.255590
C     -3.256160    2.062850   -0.282227
C     -4.337519    0.159146    0.790002
C     -2.774588   -0.546837   -1.673498
C      4.863491   -0.242729   -0.318268
C      3.673033   -0.934544    0.291268
C      2.398243   -0.138605    0.075016
C     -1.974697   -1.424023    0.430082
C     -2.998227    0.761968    0.447759
C     -2.143549   -0.183934   -0.366380
C      1.255221   -0.857246    0.691011
N     -0.788100   -1.899205    0.558879
N      0.268146   -1.226629   -0.053557
O      1.286253   -1.111508    2.065463
H      4.425650    1.390697    1.081228
H      6.143491    1.207233    0.686095
H      5.000611    1.937767   -0.514065
H     -4.078459    1.867180   -1.010508
H     -3.582876    2.798761    0.506940
H     -2.341635    2.445466   -0.795202
H     -4.709996   -0.514044   -0.013691
H     -4.270908   -0.470721    1.713928
H     -5.080696    0.949898    1.004759
H     -1.958495   -0.866040   -2.365685
H     -3.411501   -1.441384   -1.525812
H     -3.316198    0.282524   -2.157902
H      4.697741   -0.221333   -1.416122
H      5.756102   -0.854652   -0.142973
H      3.603812   -1.938122   -0.181441
H      3.847063   -1.071571    1.364152
H      2.258864   -0.056497   -1.017243
H      2.541602    0.866332    0.500723
H     -2.842170   -1.883546    0.871450
H     -2.484163    0.985422    1.404587
H     -1.180961    0.331658   -0.545272
H      0.402048   -1.286076    2.532533
