43

C     -3.018751   -2.032773    0.448970
C     -1.777890   -0.450569   -1.749815
C     -1.627162   -1.484277    0.509782
C     -4.208757    2.555269    1.288529
C      5.597099    1.373876    0.292066
C     -3.041349    2.278518    1.969168
C     -4.476184    1.940393    0.089693
C      5.904410    0.064202    0.538009
C      4.407606    1.685103   -0.332201
C     -2.107245    1.385258    1.480923
C     -3.575034    1.053737   -0.417905
C      5.018758   -0.916078    0.157769
C      3.528629    0.669048   -0.704531
C      0.012066    0.216782   -0.258348
C     -2.396023    0.772444    0.265209
C      3.800400   -0.650744   -0.475049
C      1.566271   -1.569397   -1.143680
C     -1.454726   -0.197743   -0.303370
N      0.904716   -0.703368   -0.685270
N      2.968184   -1.741505   -0.830880
O      1.077265   -2.538454   -2.039135
H     -3.811682   -1.310529    0.681333
H     -3.159936   -2.531379   -0.556700
H     -3.032530   -2.906142    1.167898
H     -0.889402   -0.723826   -2.358366
H     -2.571770   -1.166185   -1.937369
H     -2.068016    0.560144   -2.177603
H     -0.900542   -2.240419    0.170227
H     -1.389408   -1.288867    1.582481
H     -4.964635    3.258788    1.652846
H      6.320051    2.145818    0.601352
H     -2.899908    2.809497    2.922288
H     -5.385349    2.144344   -0.457928
H      6.846493   -0.160815    1.030099
H      4.184603    2.710562   -0.519690
H     -1.203627    1.178705    2.031682
H     -3.840915    0.582756   -1.371307
H      5.271389   -1.930485    0.358383
H      2.589706    0.918001   -1.207654
H      0.100395    1.222610   -0.806934
H      0.208702    0.532044    0.813484
H      3.410037   -2.711052   -0.867797
H      0.084057   -2.803290   -1.935888
