51

C      2.561717   -2.522211   -0.386399
C      6.124706   -0.919367   -0.475065
C     -1.125149    5.617245    0.185305
C      3.228847   -1.345136    0.287812
C      4.952184   -0.778327   -1.439825
C     -5.008882   -2.025727    1.000136
C     -3.999521   -2.592260    1.969838
C     -4.427973   -1.942679   -0.416286
C     -2.649326   -1.987454    1.840207
C     -3.171003    0.060615   -1.275400
C     -2.155958    0.998321   -1.146308
C     -1.515402   -0.035513    0.898515
C     -0.671027    4.284769    0.690777
C     -3.345866   -0.909425   -0.321619
C     -2.531663   -0.971703    0.765514
C     -1.318123    0.945771   -0.041401
C     -0.231697    1.936020    0.107183
C      0.993498    1.499368   -0.606331
C      3.238707    0.880654   -0.773412
N      2.114428    1.297425   -0.016872
N      3.809340   -0.413483   -0.645467
O     -0.331911    4.088799    1.873811
O      0.908594    1.304148   -1.974268
O     -0.632217    3.246109   -0.198836
S      3.861516    1.986102   -1.826334
H      2.228169   -3.200182    0.417435
H      3.258132   -3.089132   -1.034502
H      1.701488   -2.176898   -0.999105
H      7.045472   -0.489836   -0.926423
H      5.915976   -0.375853    0.483211
H      6.266349   -1.983447   -0.201387
H     -0.920961    6.344671    0.997905
H     -2.206063    5.622121   -0.028104
H     -0.568530    5.862236   -0.725556
H      4.013104   -1.730866    0.980343
H      2.444971   -0.854831    0.907242
H      5.186769    0.045943   -2.124932
H      4.794900   -1.708595   -2.020401
H     -5.210700   -0.982064    1.303439
H     -5.899881   -2.651451    0.980633
H     -3.969929   -3.715113    1.883703
H     -4.392216   -2.389879    2.988289
H     -5.244388   -1.595871   -1.060062
H     -3.952224   -2.877761   -0.724430
H     -1.931080   -2.807115    1.566158
H     -2.274925   -1.566333    2.792080
H     -3.829322    0.092175   -2.129422
H     -1.978529    1.770858   -1.859717
H     -0.851624   -0.071518    1.767863
H      0.036447    1.949940    1.204345
H      1.660777    0.876741   -2.513877
