41

C      1.964449   -2.132257    1.734059
C     -4.789981    2.228973    0.039636
C     -2.530228   -1.454094   -0.765174
C      1.480152   -2.282858    0.335260
C     -3.791797    1.670053    1.029232
C     -3.455002   -0.512341   -0.080393
C      4.810447    1.325574   -1.202835
C      4.945558    0.186952   -0.459425
C      3.565131    1.674367   -1.700478
C      3.857854   -0.643824   -0.182224
C      2.502418    0.875160   -1.437707
C      2.631953   -0.293633   -0.675696
C      1.391129   -1.041546   -0.460617
C      0.458844   -0.089741    0.251245
C     -1.532823    1.103423    0.247208
N     -0.629660    0.217434   -0.375637
N     -2.890913    0.717374    0.372086
O      0.744755    0.423776    1.494580
S     -0.999700    2.544872    0.807742
H      2.773808   -2.886799    1.917475
H      2.334653   -1.128134    1.965369
H      1.152974   -2.369136    2.487631
H     -4.474918    1.981503   -1.001460
H     -5.798482    1.791298    0.195701
H     -4.880356    3.307529    0.165085
H     -2.100455   -1.068041   -1.704404
H     -3.154350   -2.339970   -1.094411
H     -1.772049   -1.868435   -0.107699
H      2.113106   -3.003575   -0.235466
H      0.432985   -2.719361    0.357637
H     -3.232885    2.524911    1.457277
H     -4.338267    1.158143    1.871976
H     -3.835490   -1.046548    0.840187
H     -4.372944   -0.285661   -0.670035
H      5.649297    1.979623   -1.425071
H      5.918820   -0.113725   -0.052781
H      3.457570    2.586914   -2.296467
H      3.997979   -1.527987    0.387967
H      1.527199    1.175884   -1.844674
H      0.901004   -1.263756   -1.440546
H     -0.031785    0.597659    2.134354
