45

C     -5.831158   -1.308564   -1.541338
C     -3.482889    1.901856    0.153080
C      0.059654   -1.698122    2.179664
C     -5.401726   -0.235963   -0.591434
C     -3.706720    0.652466    0.961819
C      6.543888    1.913036   -0.760432
C      5.709121    2.653422    0.041932
C      6.162053    0.672215   -1.215980
C      4.475721    2.165258    0.403441
C      4.536281   -1.060496   -1.306946
C      3.304433   -1.530986   -0.937150
C      2.873251    0.423691    0.296190
C      0.255702   -0.762228    0.983584
C      4.936839    0.180772   -0.860287
C      4.118007    0.926190   -0.063319
C      2.428882   -0.795786   -0.117251
C     -0.988774   -0.715764    0.166645
C     -3.237948   -1.439576   -0.215539
N     -1.987487   -1.412177    0.504202
N     -4.136364   -0.400094    0.001762
O     -1.020803    0.088998   -0.942931
O      1.238501   -1.340975    0.193052
S     -3.525259   -2.672712   -1.234899
H     -6.893926   -1.076097   -1.893783
H     -5.179074   -1.335887   -2.421277
H     -5.920808   -2.282606   -1.030905
H     -2.600418    2.453981    0.547415
H     -3.309290    1.611846   -0.898374
H     -4.401154    2.520160    0.205371
H      1.072703   -1.895977    2.580754
H     -0.515532   -1.218977    2.980426
H     -0.404580   -2.612355    1.779003
H     -5.366617    0.744540   -1.168854
H     -6.200896   -0.066219    0.183683
H     -4.466124    0.780522    1.758212
H     -2.769784    0.380202    1.454510
H      7.522953    2.317621   -1.038262
H      6.028245    3.617002    0.384312
H      6.810217    0.081136   -1.847340
H      3.819560    2.763134    1.042049
H      5.226425   -1.604715   -1.934791
H      2.990833   -2.493813   -1.282380
H      2.238904    1.056117    0.942543
H      0.556077    0.226733    1.328960
H     -1.560918   -0.170812   -1.758761
