39

C     -2.634140    1.838636   -0.553485
C     -5.347650   -1.185086    0.805098
C      1.233720    0.852821    1.282746
C     -3.885841    1.025582   -0.442373
C     -4.851842   -1.207108   -0.620689
C      6.608330    0.602337    0.143495
C      5.912365    0.349964    1.283069
C      6.024315    0.314022   -1.075534
C      4.629933   -0.189782    1.219920
C      4.746627   -0.224030   -1.139565
C      1.120515    0.127765   -0.061384
C      4.038325   -0.480525    0.009288
C     -0.194545   -0.581693   -0.059249
C     -2.380900   -0.919151   -0.843415
N     -1.154993   -0.243064   -0.860458
N     -3.636624   -0.364823   -0.650780
O     -0.426929   -1.633298    0.811429
S     -2.286956   -2.558660   -1.086080
S      2.407831   -1.169131   -0.016003
H     -1.914269    1.669751    0.250589
H     -2.158631    1.712359   -1.528706
H     -2.912742    2.933153   -0.504037
H     -4.685407   -0.590220    1.456531
H     -6.380020   -0.767659    0.857822
H     -5.354396   -2.236135    1.167679
H      2.297142    1.110920    1.385591
H      0.611522    1.755994    1.323236
H      0.942437    0.133040    2.079789
H     -4.626512    1.363863   -1.217973
H     -4.412132    1.222678    0.533851
H     -4.627153   -2.228791   -0.956613
H     -5.646278   -0.779537   -1.261573
H      7.611647    1.027145    0.237502
H      6.342497    0.566911    2.261609
H      6.598384    0.523812   -1.962455
H      4.138524   -0.363232    2.169188
H      4.353736   -0.423808   -2.126959
H      1.220975    0.809350   -0.901467
H     -1.320861   -1.794370    1.252927
