44

C     -5.554353   -0.209955    0.182296
C     -2.337168    2.000505   -0.043266
C      0.649547   -2.174887   -2.179988
C     -4.299174   -0.107432    1.053455
C     -2.765038    0.709966   -0.715811
C      4.893618    1.050800    1.489496
C      4.270377   -0.145638    1.754739
C      2.308202    1.449558   -2.518783
C      4.524325    1.716805    0.346574
C      3.264571    1.936441   -1.631399
C      3.307264   -0.683953    0.926228
C      1.672702    0.242365   -2.257915
C      1.265702   -1.727086   -0.833572
C      3.566166    1.213854   -0.508139
C      1.993679   -0.463774   -1.122522
C      2.938524   -0.012408   -0.219352
C      0.083894   -1.513208    0.034287
C     -2.278280   -1.440079    0.375223
N     -1.115836   -1.634873   -0.410302
N     -3.113612   -0.302641    0.253637
O      0.236443   -1.175781    1.351312
S     -2.686218   -2.572792    1.469759
H     -5.448176    0.428788   -0.716092
H     -5.688701   -1.259643   -0.157117
H     -6.452990    0.107231    0.741530
H     -2.758087    2.825115   -0.681116
H     -1.243114    2.123250   -0.077988
H     -2.767351    2.117213    0.954364
H      1.330998   -2.032161   -3.018205
H      0.434869   -3.264467   -2.130830
H     -0.248117   -1.556243   -2.366713
H     -4.389939   -0.955701    1.791096
H     -4.298384    0.810070    1.640503
H     -1.900346    0.368236   -1.308689
H     -3.600958    0.870921   -1.436769
H      5.648504    1.487209    2.124829
H      4.532951   -0.696407    2.639949
H      2.079316    2.027202   -3.405183
H      4.998892    2.670956    0.101307
H      3.746348    2.889387   -1.861737
H      2.838600   -1.630155    1.138993
H      0.945227   -0.050729   -2.996873
H      1.981246   -2.461880   -0.474507
H     -0.566123   -0.973978    1.935341
