41

C      2.739786   -2.873285    0.188371
C     -4.833932    0.777372   -0.306229
C     -2.674145   -0.824450   -1.831673
C      1.389412   -2.192931    0.107073
C     -3.723803    1.772406   -0.360995
C     -1.965397    0.469318   -1.604870
C      4.383242    1.923340    0.280706
C      3.407341    1.691200   -0.659719
C      4.349938    1.184120    1.455315
C      2.439163    0.742151   -0.406831
C      3.369628    0.242150    1.680077
C      2.384252   -0.004760    0.751339
C      1.375760   -1.012414    1.043935
C     -0.012975   -0.428080    1.034153
C     -1.540728    1.334630    0.694199
N     -0.223429    0.785021    0.702333
N     -2.401927    1.189514   -0.423920
O     -1.089955   -1.220277    1.392466
S     -2.079348    2.151135    2.000183
H      3.280265   -2.879388   -0.757492
H      3.354461   -2.419667    1.015799
H      2.642140   -3.955452    0.496783
H     -5.358644    0.728594   -1.278960
H     -5.613975    1.064343    0.456666
H     -4.517507   -0.258277   -0.052456
H     -3.685459   -0.745836   -2.241078
H     -2.063309   -1.391806   -2.589694
H     -2.661825   -1.488786   -0.934188
H      0.642175   -2.917514    0.499712
H      1.094850   -1.951041   -0.919191
H     -3.896934    2.433788   -1.258017
H     -3.824606    2.460468    0.515932
H     -0.888725    0.262952   -1.501141
H     -2.079037    1.079905   -2.526282
H      5.157519    2.664819    0.107250
H      3.436553    2.269205   -1.575742
H      5.110140    1.362932    2.193165
H      1.691716    0.585782   -1.161604
H      3.418605   -0.296835    2.633830
H      1.531773   -1.407076    2.064373
H     -2.063058   -0.907268    1.368784
