37

C     -4.044842    0.692756    0.485333
C      2.071886    0.694316    1.778047
C      3.253252   -1.933285   -1.539215
C     -2.252221   -1.700811    0.953210
C     -2.699614    0.750425    1.111647
C      2.403405    1.261677    0.437902
C      3.337772   -0.805348   -0.561920
C     -1.362579   -0.183482   -0.807417
C     -1.743943   -0.292383    0.651706
C     -0.858736    1.149512   -1.153606
C      1.316540    0.274707   -1.573346
N      0.357374    1.365377   -1.501247
N      2.346184    0.196303   -0.612053
O     -1.683237    2.269175   -1.125090
S      1.160194   -0.785469   -2.777706
H     -4.241873   -0.224633   -0.102099
H     -4.817267    0.722639    1.280791
H     -4.252387    1.554302   -0.185127
H      1.535111   -0.254221    1.710769
H      2.987965    0.579978    2.421709
H      1.438641    1.435563    2.324912
H      2.312281   -2.501006   -1.461717
H      3.432666   -1.647887   -2.586472
H      4.086790   -2.663120   -1.278505
H     -2.970056   -1.707796    1.781332
H     -2.671323   -2.096111    0.005907
H     -1.418484   -2.382619    1.238752
H     -2.259820    1.747430    0.964223
H     -2.759213    0.647925    2.239838
H      1.672809    2.035825    0.156984
H      3.420136    1.679439    0.420729
H      3.440020   -1.216116    0.493606
H      4.363921   -0.311500   -0.712076
H     -2.223248   -0.476636   -1.452112
H     -0.516738   -0.910835   -0.933052
H     -0.805890   -0.175324    1.234727
H     -1.355474    3.211233   -1.321627
