39

C     -3.507521   -1.895209    0.322802
C     -4.719032    1.817928   -0.780965
C      1.283777   -2.622863   -0.336982
C     -2.961425   -0.791671   -0.508427
C     -4.045355    1.294019    0.464217
C      5.306597    0.804137    0.635744
C      4.825872    1.813511   -1.436872
C      4.100381    0.125728    0.589288
C      3.629519    1.138391   -1.478696
C      1.439422   -1.258409    0.320885
C      5.671579    1.640123   -0.365206
C      3.228011    0.272029   -0.467714
C      0.110322   -0.706846    0.732422
C     -1.578318    0.995233    0.446068
Cl     7.197396    2.496157   -0.316696
N     -0.365533    0.348895    0.185117
N     -2.876087    0.490614    0.130204
O     -0.635434   -1.326140    1.714828
O      2.030308   -0.369392   -0.565288
S     -1.476758    2.487768    1.179941
H     -4.449986   -2.329831   -0.080203
H     -2.779538   -2.754161    0.251113
H     -3.558416   -1.672218    1.407358
H     -4.617377    2.935754   -0.883066
H     -4.169497    1.402017   -1.651999
H     -5.802714    1.627260   -0.822318
H      0.749995   -2.559965   -1.291498
H      0.836923   -3.338933    0.357573
H      2.322172   -2.980645   -0.551502
H     -1.967416   -1.057702   -0.907417
H     -3.622539   -0.699783   -1.415161
H     -3.709660    2.202427    1.031437
H     -4.728675    0.766400    1.159960
H      5.991236    0.677140    1.483601
H      5.171734    2.498054   -2.208343
H      3.858994   -0.521021    1.407322
H      3.007621    1.303334   -2.339204
H      2.021269   -1.431358    1.254158
H     -1.211847   -0.820771    2.373515
