37

C      0.365803   -2.123524   -0.450699
C      2.097458   -0.549937    1.509232
C     -3.007762    1.534840    0.782450
C     -1.672506    1.737875    1.460976
C     -3.298002    0.048712    0.867392
C     -0.650483    1.067371    0.616072
C     -2.290906   -0.725430    0.060966
C     -0.498778   -0.742065   -2.270253
C     -0.972007   -0.058431   -0.008035
C      1.347413    0.024849   -0.850417
C      3.463118    0.843484    0.037674
C      0.057685   -0.699184   -0.841112
N      4.350314    0.950013    0.962010
N      2.267693    0.090138    0.223605
O      0.470366   -1.291742   -3.113830
O      1.610214    0.621637   -1.925362
O      3.740605    1.511169   -1.162272
H      1.428354   -2.245605   -0.203696
H     -0.222271   -2.414303    0.453155
H      0.084845   -2.827507   -1.277029
H      2.332999    0.218608    2.303849
H      2.825823   -1.375991    1.659426
H      1.104025   -0.907756    1.742633
H     -3.813150    2.119830    1.221945
H     -2.858722    1.778187   -0.306219
H     -1.730247    1.183614    2.431854
H     -1.443499    2.796912    1.648286
H     -3.270638   -0.250329    1.934731
H     -4.309907   -0.129125    0.464850
H      0.338923    1.515440    0.525588
H     -2.189539   -1.741634    0.476935
H     -2.733011   -0.856305   -0.970565
H     -0.870645    0.224250   -2.608769
H     -1.351215   -1.467953   -2.290781
H      4.302963    0.522310    1.903141
H      0.616103   -0.697942   -3.873741
H      4.378584    2.315525   -1.133990
