49

C      4.684269   -0.128857   -0.966560
C      5.445175    1.577853    1.480012
C      3.541458    0.846495   -1.019884
C      4.159585    2.211081    1.040299
C     -6.933300    1.367325   -0.144586
C      0.256141   -4.320389    0.574530
C     -5.978593    2.353995   -0.295963
C     -6.533684    0.090832    0.159855
C     -1.027662   -3.838434    0.577729
C      1.262730   -3.609067   -0.043152
C     -4.626890    2.100413   -0.151009
C     -5.190401   -0.161497    0.303733
C     -1.297666   -2.616669   -0.053654
C      1.028055   -2.405765   -0.671335
C     -2.808547    0.437506    0.324542
C     -4.240866    0.820840    0.153045
C     -0.287109   -1.920664   -0.662493
C     -0.514822   -0.617097   -1.328569
C      0.347003    0.440128   -0.680548
C      2.038076    0.919563    0.929228
N      1.164711    0.063890    0.227848
N      3.269167    1.337220    0.309293
O      0.287079    1.764125   -1.024627
S      1.670768    1.440057    2.434893
S     -2.202579   -0.074207   -1.279290
H      4.447317   -0.984855   -1.676104
H      4.837166   -0.531462    0.047975
H      5.616305    0.339459   -1.397780
H      5.176510    0.653809    2.068533
H      6.137830    1.370297    0.665129
H      5.919351    2.292837    2.204151
H      2.659717    0.360275   -1.458272
H      3.848598    1.689202   -1.703035
H      4.429732    3.105883    0.413764
H      3.625212    2.580877    1.945075
H     -7.994194    1.585296   -0.263268
H      0.475084   -5.261223    1.060296
H     -6.304473    3.361087   -0.535131
H     -7.249588   -0.713425    0.286185
H     -1.864190   -4.347385    1.043491
H      2.280876   -3.990660   -0.048432
H     -3.885654    2.898691   -0.276181
H     -4.912185   -1.190667    0.545205
H     -2.291870   -2.221841   -0.080045
H      1.832054   -1.855127   -1.156351
H     -2.255233    1.320545    0.733611
H     -2.784299   -0.317293    1.122379
H     -0.162416   -0.668372   -2.389576
H      0.906253    2.445376   -0.553378
