52

C     -6.196880    1.261982   -0.288637
C     -3.566986    2.913077   -0.428344
C      0.745633    0.243936   -0.852951
C     -5.304863    0.554448    0.664253
C     -3.164659    1.934185    0.646825
C      4.908302    2.829800   -0.877859
C      1.877925   -4.752302   -0.931767
C      4.727183    1.563641   -1.402238
C      4.574972    3.104475    0.410491
C      2.192392   -3.662234   -1.701090
C      1.161012   -4.535585    0.214535
C      4.199121    0.569439   -0.595909
C      4.052358    2.097069    1.187827
C      1.794531   -2.367095   -1.330353
C      0.773679   -3.270346    0.575946
C      3.307911   -0.231687    1.573675
C      3.850811    0.795008    0.698526
C      1.076580   -2.143271   -0.183744
C     -0.827155   -0.864584    0.566697
C     -3.102902   -0.419263    0.015572
C      0.659842   -0.767945    0.251744
N     -1.717134   -0.363761   -0.216402
N     -3.900402    0.691068    0.452455
O     -1.300023   -1.490557    1.697388
S     -3.862282   -1.837543   -0.226032
S      1.550436   -0.245497    1.704126
H     -5.715106    1.420060   -1.248554
H     -7.109520    0.608367   -0.455587
H     -6.577999    2.182905    0.211789
H     -4.555945    3.329685   -0.258578
H     -2.773996    3.698188   -0.505051
H     -3.548589    2.377357   -1.409268
H     -0.189972    0.117979   -1.487515
H      1.625115    0.205967   -1.479121
H      0.585649    1.250520   -0.385149
H     -5.542550   -0.549359    0.618319
H     -5.510599    0.819889    1.727407
H     -2.078291    1.789885    0.655195
H     -3.438094    2.350994    1.665556
H      5.326740    3.627443   -1.505583
H      2.192983   -5.766219   -1.226727
H      4.985735    1.331215   -2.420161
H      4.703726    4.091330    0.854083
H      2.752894   -3.819302   -2.602753
H      0.907484   -5.379486    0.829760
H      4.070840   -0.415447   -1.041104
H      3.767342    2.267025    2.224873
H      2.078646   -1.546286   -1.996857
H      0.216704   -3.094003    1.489767
H      3.640510   -1.273162    1.238539
H      3.736870   -0.108871    2.618676
H     -2.059977   -1.123131    2.263311
