74

C      6.271745   -3.992183    2.294136
C     -7.028473   -4.148102    0.901323
C      6.898712   -2.802865    2.203992
C     -6.137596   -3.732089    1.794540
C      7.882371   -2.590375    1.138722
C     -5.422828   -2.430778    1.646545
C      7.667560   -1.393999    0.275031
C     -5.834142   -1.703434    0.409980
C      6.404966   -1.326790   -0.483023
C     -5.114077   -0.368118    0.226785
C      5.126748   -1.237811    0.294081
C     -5.378004    0.569356    1.358679
C      5.110969    0.023354    1.169379
C     -4.642677    1.860502    1.159455
C      3.848896    0.123835    1.957332
C     -5.084972    2.534389   -0.091064
C      2.607298    0.185791    1.126011
C     -4.377549    3.853241   -0.320985
C      2.542753    1.344771    0.187157
C     -2.899914    3.764406   -0.428293
C      0.057324    2.628448   -3.966757
C     -0.038944    0.572801   -2.569535
C     -0.742689    1.848479   -2.942174
C      1.241896    1.239414   -0.549291
C     -2.507695    2.928265   -1.575165
O      0.433897    1.701873   -4.960747
O      0.225494    1.664622    0.036721
O     -3.384457    2.454503   -2.326778
O      1.109689    0.712435   -1.804487
O     -1.191998    2.621810   -1.887208
H      6.478730   -4.795001    1.596593
H      5.545202   -4.165158    3.071836
H     -7.242559   -3.526521    0.041711
H     -7.551525   -5.076207    0.988004
H      6.645853   -2.051010    2.937170
H     -5.942316   -4.371675    2.643569
H      7.901977   -3.540013    0.502514
H      8.943918   -2.581412    1.568938
H     -5.549255   -1.809438    2.553613
H     -4.310119   -2.597886    1.562220
H      8.507642   -1.401778   -0.500092
H      7.871457   -0.440593    0.845811
H     -6.938734   -1.539036    0.464362
H     -5.558784   -2.321345   -0.469238
H      6.381693   -0.433200   -1.184424
H      6.325373   -2.213458   -1.163258
H     -5.483227    0.010591   -0.747275
H     -4.042525   -0.619210    0.118561
H      4.320086   -1.095352   -0.510404
H      4.854291   -2.133453    0.856638
H     -5.081550    0.133947    2.336259
H     -6.492907    0.762946    1.404915
H      5.960619   -0.055347    1.868267
H      5.312541    0.922438    0.545979
H     -3.557382    1.604844    1.161026
H     -4.878191    2.548974    2.009555
H      3.773372   -0.828975    2.559263
H      3.864766    0.933334    2.704208
H     -5.127177    1.916275   -0.983156
H     -6.167229    2.838752    0.095585
H      2.442859   -0.740287    0.533451
H      1.735031    0.260247    1.810192
H     -4.613273    4.549753    0.529789
H     -4.864234    4.314217   -1.203232
H      2.524988    2.326170    0.709996
H      3.332543    1.318398   -0.596744
H     -2.433576    4.790561   -0.525017
H     -2.415814    3.342444    0.479273
H     -0.627664    3.339104   -4.442393
H      0.982146    3.055596   -3.570057
H     -0.794620   -0.106667   -2.091859
H      0.267175   -0.003941   -3.492252
H     -1.669578    1.516505   -3.502613
H     -0.274326    1.056117   -5.159669
