52

C     -4.515387   -1.448716    2.683482
C     -4.161000   -0.557191   -1.611594
C     -0.152179    1.458522   -2.445924
C     -4.449697   -1.651040    1.201884
C     -3.207756   -1.457281   -0.902791
C      5.144341   -3.724074   -0.041104
C      2.095157    4.891234    0.366524
C      3.826607   -4.023287    0.228352
C      5.492805   -2.397421   -0.138284
C      1.925989    4.653436   -0.985693
C      1.699594    3.919565    1.260044
C      2.858479   -3.030631    0.401305
C      4.538127   -1.419819    0.032301
C      1.372033    3.465919   -1.423996
C      1.141262    2.724798    0.799076
C      2.253176   -0.578690    0.470261
C      3.212590   -1.701219    0.303095
C      0.966587    2.474730   -0.554063
C     -0.834391    0.828999   -0.231495
C     -2.086443   -0.680502    1.118476
C      0.369188    1.196071   -1.031341
N     -0.940502   -0.320329    0.351968
N     -3.241387   -1.246262    0.561190
O     -1.902136    1.711450   -0.076900
S     -1.998823   -0.400389    2.716441
S      1.536697   -0.150996   -1.122451
H     -4.487727   -0.374817    2.946717
H     -3.792461   -2.055387    3.262513
H     -5.532961   -1.791561    3.064608
H     -4.777089    0.040618   -0.903578
H     -3.592678    0.098548   -2.300754
H     -4.863848   -1.176004   -2.224642
H      0.650494    1.377921   -3.189705
H     -0.640730    2.459647   -2.416824
H     -0.967266    0.732782   -2.629306
H     -4.659158   -2.757022    1.045285
H     -5.352434   -1.159000    0.759770
H     -2.206464   -1.364485   -1.312152
H     -3.511232   -2.536170   -1.035764
H      5.897104   -4.503729   -0.174995
H      2.533257    5.834490    0.694989
H      3.567217   -5.060389    0.300999
H      6.535075   -2.172000   -0.351503
H      2.228572    5.400713   -1.730820
H      1.830750    4.103121    2.322401
H      1.833879   -3.257478    0.610813
H      4.832837   -0.384528   -0.048081
H      1.231434    3.261550   -2.491668
H      0.856558    2.016825    1.536918
H      2.807682    0.254701    0.945287
H      1.426997   -0.971349    1.112919
H     -2.790737    1.446126    0.277812
