35

C     -2.989970   -2.470904    0.699189
C     -2.895806    2.040315   -1.222326
C      1.327762    1.756735    1.832404
C      4.125910   -0.895937   -1.423655
C      3.579778   -1.806827   -0.545598
C      3.667535    0.401244   -1.378234
C      2.598549   -1.421961    0.353957
C      2.685726    0.773635   -0.473888
C     -0.973684   -0.989683    0.982974
C     -0.919498    1.173824    0.065599
C     -2.242150   -1.199353    0.489892
C     -2.203163    0.982098   -0.442299
C      1.082393    0.326910    1.356789
C      2.128226   -0.125113    0.412018
C     -0.282694    0.187174    0.788732
C     -2.877690   -0.201828   -0.237395
O     -4.170785   -0.403005   -0.745520
H     -3.975323   -2.307438    1.182536
H     -2.392924   -3.098436    1.391329
H     -3.188352   -2.987729   -0.264758
H     -2.284852    2.958299   -1.215950
H     -3.185857    1.703174   -2.220951
H     -3.832773    2.281746   -0.653530
H      1.237404    2.492970    1.035119
H      2.315759    1.752792    2.345778
H      0.512987    1.965862    2.571440
H      4.904613   -1.197706   -2.138769
H      3.928181   -2.838865   -0.564665
H      4.104084    1.106881   -2.072564
H      2.179807   -2.149269    1.036887
H      2.385577    1.812975   -0.507853
H     -0.513654   -1.788846    1.543001
H     -0.409039    2.108123   -0.106169
H      1.156098   -0.300488    2.293122
H     -4.582176    0.358633   -1.266797
