31

C      3.737386   -1.874775   -0.096597
C      2.681070    1.894494   -0.591569
C      2.780682   -0.970336    0.633620
C      2.216471    0.595782   -1.223818
C     -2.893325   -0.162311    0.478811
C     -2.440463   -0.625903   -0.886137
C     -2.993313    1.320908    0.525417
C     -3.414606   -0.183311   -1.909574
C      0.429139   -0.723047   -0.166025
N      1.808181   -0.379870   -0.236702
O     -2.717598    1.980742   -0.490617
O     -3.389413    1.971743    1.688986
O     -3.035545    0.569156   -2.841347
O     -4.727408   -0.582203   -1.855593
S     -0.036990   -1.822069    0.936025
S     -0.794553   -0.005380   -1.232470
H      4.747968   -1.756520    0.364253
H      3.471294   -2.948356   -0.024109
H      3.784347   -1.591821   -1.163082
H      2.298812    1.976462    0.444735
H      2.239819    2.760331   -1.154110
H      3.778100    1.974358   -0.601513
H      2.233291   -1.583719    1.407017
H      3.359808   -0.173717    1.171107
H      3.063873    0.193826   -1.842162
H      1.393743    0.804688   -1.931596
H     -2.186285   -0.508975    1.231888
H     -3.910025   -0.627688    0.629106
H     -2.382668   -1.738267   -0.856237
H     -3.870054    2.875973    1.662890
H     -5.231735   -0.660196   -2.751362
