27

C     -1.695706    1.589370   -1.018685
C      3.516982    1.564229   -0.071105
C     -2.630911    1.028566   -0.002510
C      3.300376    0.478045   -1.103930
C     -2.502421   -0.448400    0.223920
C     -1.132767   -0.852391    0.701108
C     -1.099052   -2.322967    0.898093
C      1.731070   -0.938845    0.152256
O     -0.309008   -3.061405    0.271467
O     -1.969198   -2.940875    1.810738
O      2.871226   -0.729776   -0.563284
S      1.804760   -1.660234    1.605539
S      0.158924   -0.426657   -0.494403
H     -0.734456    1.956587   -0.602894
H     -2.189535    2.507974   -1.451005
H     -1.570038    0.871639   -1.842505
H      4.167237    1.177989    0.725038
H      2.582483    1.998097    0.293478
H      4.085756    2.377438   -0.600973
H     -2.550255    1.587427    0.950227
H     -3.679728    1.216672   -0.361357
H      2.553249    0.810815   -1.865908
H      4.241794    0.300542   -1.662609
H     -3.223829   -0.721839    1.021086
H     -2.768914   -1.020134   -0.682144
H     -0.936266   -0.399269    1.696924
H     -2.021773   -3.942597    1.843567
