35

C      3.070112   -0.826654    2.050145
C      2.592286    2.106325   -2.002600
C     -1.042418   -2.559748   -0.485638
C     -4.089295    1.080516    1.145221
C     -3.696040    1.426775   -0.121927
C     -3.507052    0.025132    1.824991
C     -2.691911    0.719816   -0.764020
C     -2.499932   -0.676482    1.168858
C      1.045408   -0.902912    0.585236
C      0.822602    0.487160   -1.332728
C      2.286575   -0.368576    0.870723
C      2.056538    1.047345   -1.085276
C     -1.031727   -1.085287   -0.787312
C     -2.102849   -0.331749   -0.102679
C      0.303185   -0.493707   -0.500958
C      2.765749    0.610677    0.009940
O      4.005116    1.135599    0.305868
H      3.340478    0.073392    2.650351
H      4.008074   -1.312336    1.682295
H      2.475181   -1.552637    2.604046
H      3.641728    1.822150   -2.210558
H      2.008470    2.088598   -2.927890
H      2.580261    3.076337   -1.488531
H     -0.267562   -3.035749   -1.098695
H     -0.905377   -2.749342    0.590489
H     -2.017049   -2.978025   -0.827347
H     -4.874799    1.635913    1.643640
H     -4.170234    2.253820   -0.622579
H     -3.813111   -0.251622    2.823018
H     -2.388891    1.001361   -1.764427
H     -2.053903   -1.489512    1.697794
H      0.679193   -1.667616    1.264124
H      0.262829    0.831116   -2.196289
H     -1.182791   -0.981901   -1.890062
H      4.391156    1.841819   -0.283735
