26

C      3.711394    1.051551   -0.189788
C      3.612163   -0.043551    0.832795
C     -1.719142    0.279866   -0.928952
C     -1.500953   -1.053054   -0.304388
C     -2.347621    1.295404   -0.062088
C     -2.739810   -1.712487    0.126593
C      1.296029   -0.525461    0.414806
N     -1.670456    2.388229    0.209638
N      2.291054   -0.366321    1.206318
O     -3.594863    1.218343    0.504593
O     -3.847812   -1.223545   -0.173121
O     -2.750115   -2.889096    0.871002
S      1.602726   -0.320746   -1.327577
S     -0.314246   -0.934894    1.064706
H      4.539195    1.751658    0.126637
H      3.947162    0.673452   -1.208063
H      2.789020    1.665252   -0.155364
H      4.151595    0.264369    1.776560
H      4.151990   -0.952270    0.460048
H     -2.358218    0.154019   -1.840142
H     -0.724094    0.673526   -1.286608
H     -0.999695   -1.690218   -1.077461
H     -0.724137    2.546223   -0.165503
H     -4.129997    2.049440    0.778541
H     -3.443544   -3.107998    1.559968
H      0.772373   -1.191694   -2.065981
