33

C      1.306729    0.534944    2.357599
C      4.691700    0.729228   -1.425469
C      4.352458    1.595257   -0.414974
C      3.843544   -0.349211   -1.653358
C      3.221572    1.408144    0.343273
C      2.709307   -0.527765   -0.884972
C     -3.364775   -0.169557   -0.512420
C      2.360096    0.336401    0.131947
C     -2.880029   -1.128069    0.520537
C     -3.692146    1.160152    0.005453
C     -2.587627   -2.422351   -0.136525
C     -0.029761   -0.295626    0.458289
N     -4.890104    1.608319   -0.132181
N      1.200047    0.177900    0.938286
O     -2.784356    1.987806    0.646650
O     -2.758378   -2.558457   -1.352068
O     -2.114635   -3.514219    0.595337
O     -0.128690   -0.603165   -0.762768
S     -1.480086   -0.494598    1.469014
H      1.042385   -0.337520    2.980770
H      2.347684    0.813236    2.626998
H      0.679598    1.423043    2.543233
H      5.578450    0.862023   -2.031898
H      5.000416    2.432001   -0.229513
H      4.110675   -1.037826   -2.454830
H      2.979889    2.116964    1.141218
H      2.054054   -1.374613   -1.072167
H     -4.223277   -0.613710   -1.044194
H     -2.522977   -0.045804   -1.256531
H     -3.707520   -1.344556    1.256396
H     -5.623619    1.045312   -0.601719
H     -2.768272    2.997305    0.438690
H     -1.922354   -4.410984    0.147178
