26

C      1.983047    0.986362    0.139914
C      3.275272    0.882869   -1.956065
C     -1.544960    0.123157   -0.137534
C     -0.655624   -0.950451    0.509122
C     -2.294551    0.836587    0.899782
C     -1.522060   -1.914850    1.237503
C      1.601022   -0.855082   -1.490275
N     -2.184637    2.096323    1.079431
N      2.260647    0.311428   -1.093629
O     -3.156097    0.080598    1.708742
O     -1.383127   -2.091080    2.464428
O     -2.504464   -2.630875    0.529962
O      2.025576   -1.357811   -2.603057
S      0.300888   -1.738860   -0.740877
H      1.000931    1.447923    0.183315
H      2.712652    1.846450    0.305819
H      2.191896    0.332355    1.033186
H      2.801231    1.508499   -2.741602
H      3.981884    1.522591   -1.393836
H      3.822462    0.017293   -2.415334
H     -2.283999   -0.411589   -0.823368
H     -0.996530    0.815753   -0.773781
H     -0.020381   -0.435643    1.261631
H     -2.701832    2.614941    1.801542
H     -3.944394    0.517015    2.169508
H     -2.764851   -3.553901    0.845474
