26

C     -4.460454   -0.373836   -0.987389
C     -3.647344    0.472751   -0.018356
C      2.073813    0.905421    0.584570
C      1.652151    0.508537   -0.817928
C      3.487673    0.491255    0.753169
C      1.796414   -0.957433   -0.949701
C     -1.310625    0.516946   -0.356149
N      4.367663    1.381098    1.012122
N     -2.485622    0.908294   -0.709602
O      3.871085   -0.832623    0.636340
O      2.537258   -1.452443   -1.854593
O      1.166610   -1.882760   -0.136639
S     -1.032446   -0.583406    1.002684
S      0.053044    1.134666   -1.302840
H     -3.738699   -1.018303   -1.529158
H     -4.933250    0.325488   -1.693117
H     -5.218300   -0.912773   -0.420139
H     -3.337071   -0.152233    0.841881
H     -4.248733    1.329267    0.334246
H      1.977498    1.991046    0.738768
H      1.447881    0.396439    1.353041
H      2.456104    0.988430   -1.475969
H      4.157791    2.389372    1.114209
H      4.573535   -1.208052    1.289613
H      0.691374   -2.697168   -0.530289
H     -1.897349   -1.667980    1.020535
