37

C     -2.496650   -1.314981   -0.400190
C     -1.230186   -4.126137    0.087163
C      2.947572    0.559145    1.388598
C      1.570337    0.416403    1.313574
C      3.114566    0.223162   -0.941969
C     -1.102552    1.066917   -0.889159
C      0.385187    4.253953   -0.400425
C     -1.366381    3.241838    0.316121
C     -0.977565   -1.322545   -0.447621
C      3.744855    0.464889    0.260433
C      0.938453    0.175072    0.114526
C      1.743792    0.082985   -1.003810
C     -0.515209    0.028218    0.044536
F      5.092928    0.605686    0.340707
F      1.224186   -0.155961   -2.241096
N     -0.682823    4.408875    0.400497
N      0.355579    3.030367   -0.957151
N     -0.722446    2.412100   -0.513947
O     -1.048035    0.168831    1.338113
O     -1.016305   -2.300687    2.007570
O      1.024303   -2.747093    0.723560
S     -0.449161   -2.632024    0.635583
H     -2.895707   -0.624700    0.357397
H     -2.894112   -2.360581   -0.256412
H     -2.903841   -1.000603   -1.394500
H     -1.728102   -4.013823   -0.893525
H     -0.510265   -4.961870   -0.008817
H     -2.009311   -4.473334    0.802814
H      3.431208    0.749038    2.340679
H      1.036729    0.507991    2.257470
H      3.738744    0.149934   -1.821492
H     -0.800332    0.845964   -1.930871
H     -2.230652    0.987106   -0.906677
H      1.136678    5.015694   -0.553458
H     -2.286419    3.083453    0.868492
H     -0.696902   -1.515544   -1.494219
H     -0.922160    1.072264    1.701528
