69

C     -4.544271   -4.255944   -0.474915
C     -6.546991    4.133337    1.396636
C      6.705498   -1.957706    1.974227
C      8.414043   -0.222040    1.191736
C      4.785716    0.569932   -0.086718
C     -5.347447   -3.079489    0.007809
C     -7.325886    2.881182    1.177807
C     -0.356035    1.846468   -0.750041
C     -1.494228    2.098864   -1.692011
C      0.647241    0.948225   -1.409102
C     -2.182169    0.818544   -2.074701
C      1.824999    0.670764   -0.454086
C     -2.739144    0.087684   -0.857380
C      5.873424   -2.317794   -0.659718
C      6.950390   -1.352656   -0.367352
C      2.761658   -0.225282   -1.215765
C      4.690139   -1.674764   -1.269513
C     -3.717259    0.979305   -0.187785
C      7.342823   -1.184082    0.884918
C      3.985848   -0.628638   -0.454603
C     -4.370623    0.438733    1.048332
C     -5.119610   -0.793462    0.736508
C     -5.333646    1.484816    1.510215
O     -6.380182   -0.790072    0.898191
O     -5.233068    2.073247    2.615564
O     -4.546634   -1.964882    0.276051
O     -6.421181    1.866148    0.706415
H     -5.023067   -5.207612   -0.143827
H     -4.552981   -4.265790   -1.578809
H     -3.500986   -4.242391   -0.092178
H     -6.619165    4.422386    2.474143
H     -6.938539    4.933404    0.760263
H     -5.450163    3.978947    1.203522
H      7.108271   -1.633684    2.962130
H      6.894029   -3.027880    1.803087
H      5.605034   -1.800237    2.042045
H      8.826559   -0.448070    2.200893
H      8.006721    0.818266    1.272665
H      9.233482   -0.262535    0.475482
H      4.171219    1.492580   -0.289793
H      5.676501    0.681115   -0.732442
H      5.104303    0.607599    0.975851
H     -5.929497   -3.407900    0.902628
H     -6.064788   -2.785330   -0.814497
H     -7.869487    2.517248    2.072575
H     -8.044104    3.034533    0.347896
H      0.157268    2.798872   -0.517557
H     -0.659146    1.388115    0.198789
H     -1.061165    2.532570   -2.631194
H     -2.133999    2.877479   -1.281126
H      1.099242    1.425400   -2.299484
H      0.236517   -0.064541   -1.639280
H     -3.050236    1.067205   -2.732519
H     -1.502883    0.208288   -2.665355
H      2.240862    1.593234   -0.066058
H      1.410025    0.104334    0.430809
H     -3.188197   -0.849048   -1.202381
H     -1.931541   -0.167521   -0.142140
H      6.255823   -3.069260   -1.396209
H      5.552108   -2.818156    0.282804
H      7.437363   -0.785371   -1.168059
H      2.161886   -1.105203   -1.549358
H      3.054685    0.340868   -2.135997
H      3.893038   -2.424697   -1.548635
H      4.937555   -1.182263   -2.248532
H     -3.282396    1.959543    0.094647
H     -4.553956    1.168209   -0.924310
H      3.579907   -1.114730    0.502815
H     -3.609510    0.261586    1.847075
