63

C     -3.718679   -3.023362   -1.278871
C     -8.767506    2.285410   -0.148985
C      7.111387   -2.122492    0.481840
C      8.992111   -1.271975   -1.014765
C      2.916701   -0.557909    0.607222
C     -5.052667   -2.583942   -0.743095
C     -7.786259    1.851412    0.921055
C      0.194684    0.609435    0.040242
C     -1.184405    1.177896    0.470954
C      0.978156    1.627493   -0.688032
C     -1.862232    0.037123    1.194783
C      5.692514    0.247903    0.088531
C      7.028218    0.063272   -0.575833
C      2.285634    1.140135   -1.170633
C      4.607428    0.454436   -0.908412
C     -3.208271    0.464642    1.665873
C      7.674498   -1.059562   -0.374862
C      3.284739    0.639099   -0.200913
C     -4.118888    0.888102    0.536131
C     -4.297606   -0.267762   -0.401318
C     -5.458637    1.177996    1.089478
O     -3.965910   -0.214792   -1.610758
O     -5.657392    1.048468    2.319768
O     -4.843965   -1.433396    0.070734
O     -6.521009    1.591490    0.306306
H     -3.431756   -2.472109   -2.197434
H     -2.960068   -2.880929   -0.480492
H     -3.723728   -4.098450   -1.552448
H     -8.323217    3.197611   -0.630522
H     -9.716824    2.514752    0.350191
H     -8.841589    1.472498   -0.904489
H      6.081434   -2.425322    0.152790
H      7.752757   -3.007088    0.483091
H      7.038658   -1.762061    1.542206
H      8.824555   -1.564756   -2.073786
H      9.552395   -0.316039   -0.994696
H      9.587982   -2.063732   -0.502983
H      2.089096   -1.159575    0.143801
H      3.769877   -1.315567    0.596453
H      2.773670   -0.355406    1.683564
H     -5.397506   -3.384092   -0.041267
H     -5.822449   -2.440490   -1.500359
H     -8.098286    0.908468    1.405497
H     -7.633145    2.665579    1.645680
H     -0.004054   -0.279072   -0.549177
H      0.667463    0.408493    1.037787
H     -1.736310    1.530086   -0.396202
H     -0.978262    1.993305    1.181513
H      0.367293    1.958219   -1.577894
H      1.106865    2.526799   -0.019701
H     -1.282765   -0.307309    2.060134
H     -1.985808   -0.837366    0.506592
H      5.790983    1.201225    0.674103
H      5.565192   -0.563788    0.802067
H      7.450567    0.842369   -1.209236
H      2.783975    1.992934   -1.727773
H      2.138566    0.332184   -1.964440
H      4.819025    1.356446   -1.484267
H      4.496400   -0.452543   -1.552723
H     -3.678105   -0.433792    2.164427
H     -3.113810    1.245149    2.437838
H      3.465523    1.470609    0.553410
H     -3.717239    1.733639   -0.037762
