37

C      4.063778   -0.761458    0.265545
C     -0.229975    1.044865   -1.405210
C     -1.861410   -1.388572   -1.183058
C      3.207473    0.072667   -0.711594
C      2.503341    1.160245    0.081579
C      1.598241    0.605555    1.125607
C      0.451503   -0.217423    0.705122
C     -0.575504    0.467411   -0.101398
C     -2.192358   -0.889642    1.164116
C     -2.963788    0.675196   -0.459663
C     -1.888530   -0.289259   -0.181168
N     -2.434888   -2.126371    1.245514
N     -4.005887    0.732595    0.315829
O     -2.198348   -0.080094    2.267305
O     -2.996330    1.580337   -1.517687
H      3.417267   -1.528979    0.696449
H      4.871186   -1.226232   -0.327584
H      4.537849   -0.086829    1.004031
H      0.637789    0.535865   -1.895005
H     -0.153403    2.152531   -1.433795
H     -1.062854    0.822416   -2.141871
H     -1.169615   -2.209240   -0.940114
H     -1.638901   -1.081130   -2.208586
H     -2.896846   -1.840486   -1.212363
H      2.488408   -0.626484   -1.149010
H      3.892679    0.521840   -1.436035
H      2.065317    1.869477   -0.624905
H      3.336694    1.731273    0.610007
H      2.266007   -0.050249    1.779654
H      1.270706    1.397033    1.858783
H      0.858115   -1.143358    0.225950
H     -0.059806   -0.620079    1.630589
H     -0.878961    1.382437    0.550382
H     -2.460442   -2.831811    0.500718
H     -4.144238    0.141804    1.130452
H     -2.354675   -0.425896    3.223117
H     -3.299593    2.530045   -1.317420
