18

C     -1.058834   -0.165876   -0.850020
C      0.141553   -0.375525    0.077016
C     -2.159664    0.558106   -0.228663
C     -0.278429   -1.139434    1.252421
N      1.974162    1.176658    0.018988
O     -3.278620    0.012738    0.008499
O     -1.979613    1.906044    0.121079
O      0.600073   -1.755606    1.923588
O     -1.629205   -1.173286    1.606252
O      2.707783    0.349080   -0.796837
O      2.518794    2.255898    0.371852
O      0.707244    0.849557    0.436461
Na     0.000000    0.000000    0.000000
Na     0.000000    0.000000    0.000000
H     -1.411515   -1.218601   -1.063126
H     -0.723961    0.277758   -1.804927
H      0.865771   -0.978764   -0.543461
H      3.004462   -0.578745   -0.529121
