18

C     -1.335890   -0.089232    0.478894
C      0.038280    0.144711   -0.131745
C     -2.301317   -0.377519   -0.596457
C      0.023257    1.277866   -1.065059
N      1.983533   -0.410081    1.212764
O     -1.984308   -1.299743   -1.428247
O     -3.510497    0.249847   -0.803830
O     -0.517843    1.152962   -2.187899
O      0.611035    2.470738   -0.686308
O      2.686343   -1.010454    0.208713
O      2.279734   -0.610222    2.397363
O      0.938999    0.414300    0.913127
Na     0.000000    0.000000    0.000000
Na     0.000000    0.000000    0.000000
H     -1.636813    0.768705    1.097152
H     -1.273858   -0.981648    1.123205
H      0.314563   -0.808666   -0.651972
H      3.684783   -0.891564    0.120301
