34

C      3.266422   -0.269310   -1.070052
C     -0.099627    2.139336    0.426257
C      2.593468   -1.492596   -0.522317
C      2.310886   -1.388473    0.959316
C      1.399385   -0.204574    1.246570
C      0.084994   -0.321720    0.544068
C     -0.766570    0.871365    0.865663
C     -2.116570    0.796997    0.150220
C     -1.935088    0.787872   -1.322618
C     -2.901889   -0.383426    0.602703
N     -2.351985   -0.199913   -2.042556
N     -3.237221   -1.260022   -0.257413
O     -1.311927    1.838498   -1.978790
O     -3.264649   -0.534973    1.924883
H      3.892482    0.215579   -0.307856
H      2.513115    0.433902   -1.492826
H      3.902704   -0.576446   -1.928469
H      0.490065    1.912462   -0.492091
H      0.527278    2.600976    1.211738
H     -0.886179    2.879898    0.174009
H      3.284832   -2.346611   -0.672980
H      1.674110   -1.735256   -1.087272
H      1.868627   -2.333348    1.287593
H      3.283712   -1.220737    1.465262
H      1.220244   -0.170267    2.341038
H      1.966676    0.698410    0.986275
H     -0.419901   -1.240410    0.946359
H      0.169634   -0.472013   -0.537718
H     -0.973769    0.845142    1.954575
H     -2.735410    1.687850    0.384369
H     -2.244364   -0.240820   -3.060355
H     -3.779705   -2.092923    0.005706
H     -1.488835    1.998436   -2.957870
H     -3.934944   -1.222885    2.254578
