57

C     -4.784962   -3.308830   -0.926458
C     -6.576188    3.114978    2.138673
C      7.542145   -0.121043   -1.712312
C      7.128546    1.012194    0.553188
C      2.462712   -2.127464    0.267342
C     -4.444512   -2.034183   -1.635539
C     -6.770528    2.096573    1.030753
C      0.305383   -0.063885    0.181033
C     -0.965360    0.463712   -0.449218
C      4.691409   -0.368438    0.831293
C      5.529153   -0.581313   -0.379450
C      1.309481   -0.259770   -0.930495
C      3.332610    0.179519    0.474101
C     -2.043062    0.691699    0.614717
C      6.684706    0.069419   -0.517584
C      2.634239   -0.789928   -0.418266
C     -3.252447    1.212158   -0.119266
C     -3.675368    0.198573   -1.111404
C     -4.413394    1.397126    0.818781
O     -3.699034    0.496588   -2.333123
O     -4.357485    1.147490    2.031669
O     -4.036409   -1.060518   -0.663672
O     -5.604324    1.871567    0.293208
H     -5.798545   -3.322276   -0.485203
H     -4.705611   -4.183572   -1.632545
H     -4.076877   -3.530118   -0.107481
H     -5.917351    2.667689    2.889917
H     -7.584766    3.361929    2.527559
H     -6.088482    4.010434    1.744564
H      7.187974    0.521492   -2.538629
H      7.430979   -1.181214   -2.030037
H      8.594856    0.115355   -1.467629
H      8.064135    1.510998    0.261307
H      7.278198    0.443433    1.496203
H      6.353873    1.813825    0.710071
H      1.485499   -2.532762   -0.054878
H      3.236520   -2.835365   -0.071042
H      2.435240   -2.023751    1.374058
H     -5.326954   -1.675730   -2.206770
H     -3.577425   -2.236355   -2.306914
H     -7.521026    2.538053    0.326216
H     -7.239689    1.176882    1.425396
H      0.086437   -0.989561    0.712123
H      0.714754    0.675480    0.884594
H     -0.707740    1.422481   -0.959139
H     -1.337574   -0.229529   -1.218881
H      4.590339   -1.389141    1.305635
H      5.223340    0.322864    1.522502
H      5.242900   -1.256097   -1.171831
H      0.913162   -0.988215   -1.662299
H      1.473743    0.701674   -1.456771
H      3.505995    1.128487   -0.076029
H      2.792120    0.374333    1.423279
H     -2.276877   -0.294815    1.041467
H     -1.668232    1.417313    1.363526
H      3.255533   -0.957234   -1.318309
H     -3.035761    2.186787   -0.567012
