18

C      0.486199   -1.046812   -0.284780
C     -0.287926    0.206491   -0.183192
C      1.793351   -1.097958    0.361538
C      0.301168    1.415154   -0.737479
N     -2.736529   -0.075323   -0.190601
O      2.461164   -2.157555    0.217874
O      2.379383   -0.099974    1.120310
O     -0.274647    2.091328   -1.643623
O      1.522327    1.895792   -0.306841
O     -3.024467   -1.036255    0.740134
O     -3.602289    0.781267   -0.456370
O     -1.548285   -0.030416   -0.823831
H     -0.117235   -1.902485    0.130230
H      0.644685   -1.335755   -1.357031
H     -0.563658    0.347947    0.904454
H      3.391477    0.091646    1.110008
H      1.755505    2.870396   -0.260712
H     -2.580223   -0.917489    1.659911
