24

C      4.261812    0.379804    0.051203
C      3.288294   -0.469322    0.841458
C     -2.537563    0.180523   -1.324920
C     -1.290964    0.011897   -0.529177
C     -3.542540   -0.856358   -1.025828
C     -1.588473    0.127388    0.906654
C      0.895509    0.953638   -0.199053
O     -4.756282   -0.577832   -1.325604
O     -3.230640   -2.071755   -0.458555
O     -2.412336   -0.626520    1.453317
O     -0.954052    1.077763    1.666117
O     -0.310201    1.002748   -0.869935
S      1.561142    2.275140    0.468426
S      1.737074   -0.609040   -0.067606
H      3.996548    0.437592   -1.031428
H      4.274459    1.394981    0.496391
H      5.251335   -0.126331    0.138066
H      3.680304   -1.481434    1.021455
H      3.064683   -0.013332    1.827406
H     -3.017732    1.171727   -1.092912
H     -2.356272    0.216074   -2.423874
H     -0.861345   -1.006099   -0.716001
H     -3.807990   -2.864114   -0.725527
H     -1.344772    1.472861    2.526023
