51

C     -5.041515   -2.899481   -1.888935
C     -4.280373    4.885097   -0.722566
C     -6.247805   -2.071313   -1.519889
C      8.426310   -2.153349    0.329736
C      7.744828   -2.082650    1.532269
C      7.834879   -1.735678   -0.840831
C      6.452054   -1.580642    1.527282
C      6.553767   -1.242398   -0.819672
C      3.638217   -0.808058   -0.677905
C      3.974369    0.038609    1.515379
C      2.344275   -0.305877   -0.624918
C      2.694715    0.532005    1.560506
C     -4.841696    0.460989    0.967592
C     -0.386850    0.656550   -0.733303
C     -4.032546    3.807613    0.290915
C      5.832992   -1.154934    0.373345
C      4.478571   -0.636277    0.412335
C      1.867115    0.360105    0.480658
C      0.492303    0.853097    0.445577
C     -3.722565    1.441852    0.886940
C     -5.046483   -0.333184   -0.242201
C     -2.408527    0.785703    0.625934
O     -3.885770    4.103368    1.507768
O      0.091167    1.459479    1.480458
O     -4.302798   -0.152308   -1.234392
O     -1.965681   -0.149187    1.317090
O     -6.034140   -1.292334   -0.356722
O     -1.642409    1.234103   -0.433275
O     -3.955516    2.465988   -0.058940
H     -4.581203   -3.393814   -1.006425
H     -5.413341   -3.733397   -2.534601
H     -4.306756   -2.347015   -2.507634
H     -4.820398    5.705956   -0.215012
H     -3.312059    5.312421   -1.064157
H     -4.883763    4.500077   -1.579450
H     -7.099585   -2.747995   -1.307585
H     -6.460526   -1.364146   -2.347412
H      9.440487   -2.550358    0.352944
H      8.237288   -2.418122    2.430647
H      8.388839   -1.802083   -1.763227
H      5.949825   -1.542540    2.500852
H      6.039566   -0.899466   -1.712061
H      4.009180   -1.331049   -1.549344
H      4.623349    0.173191    2.361604
H      1.723078   -0.462485   -1.497948
H      2.308084    1.058868    2.427574
H     -4.633633   -0.194352    1.863422
H     -5.757170    1.038292    1.270278
H      0.056818    1.070395   -1.649321
H     -0.520835   -0.457218   -0.868142
H     -3.618134    1.897954    1.916033
