24

C      3.867657   -0.271133   -0.917357
C      2.838864    0.749624   -0.417857
C     -1.879822   -0.355972   -0.616983
C     -1.465751   -0.763386    0.804751
C     -2.938394    0.669498   -0.514150
C     -2.596262   -1.317321    1.555836
C      0.219292    0.941435    0.831918
O     -2.780237    1.702159    0.170449
O     -4.134279    0.442203   -1.217781
O     -3.069963   -2.458897    1.334325
O     -3.175333   -0.553149    2.560375
O     -0.910772    0.383543    1.415143
S      0.422513    2.554063    0.675120
S      1.454666   -0.213984    0.251242
K      0.000000    0.000000    0.000000
K      0.000000    0.000000    0.000000
H      3.821172   -1.121334   -0.195621
H      4.872980    0.150723   -0.930817
H      3.510030   -0.660397   -1.876315
H      2.476512    1.413794   -1.220027
H      3.253472    1.379650    0.408208
H     -2.156158   -1.238013   -1.197449
H     -0.981679    0.108738   -1.123691
H     -0.648509   -1.541844    0.703860
