24

C      3.611663   -0.414378    0.793479
C      3.358103    0.892131    0.099185
C     -3.093638    0.207792   -0.130039
C     -1.734187   -0.489707    0.019278
C     -3.080756    1.501427    0.601522
C     -1.783477   -1.776650   -0.723321
C      0.567966    0.212853   -0.540616
O     -2.080953    1.931246    1.236439
O     -4.218208    2.292178    0.597164
O     -2.640031   -1.965925   -1.624443
O     -0.896248   -2.792360   -0.445967
O     -0.781268    0.397243   -0.471244
S      1.245059   -1.003568   -1.379989
S      1.629666    1.348473    0.321316
K      0.000000    0.000000    0.000000
K      0.000000    0.000000    0.000000
H      4.719436   -0.540415    0.935824
H      3.145579   -0.332167    1.814810
H      3.166927   -1.252456    0.251814
H      3.992057    1.696046    0.563952
H      3.629982    0.819366   -0.992954
H     -3.910427   -0.437711    0.191556
H     -3.228097    0.419729   -1.212664
H     -1.619148   -0.713146    1.104092
