47

C      5.887780   -1.998919    0.069009
C     -1.639052    5.409539    0.069863
C     -4.922798   -2.895419    0.289835
C     -3.001590   -2.503190   -1.171133
C      5.643936   -0.698289    0.789205
C     -1.172437    3.994625   -0.300917
C      4.660020    0.181152    0.082003
C     -1.660245    3.092777    0.778664
C     -2.764228   -2.449232    1.321497
C      1.055897   -0.479851   -0.803424
C     -3.625395   -2.098223    0.136811
C      0.233424   -0.218024    0.407062
C      2.355628    0.218602   -0.685656
C     -1.465872   -1.752071    1.316058
C     -0.029491    1.231655    0.567694
O      2.599766    1.371436   -1.110974
O     -0.683883   -2.002310    2.285332
O      0.868819    2.106901    0.660274
O      3.409848   -0.439930   -0.053448
O     -1.338039    1.738850    0.629120
O     -1.023083   -0.866874    0.374721
H      5.026694   -2.195446   -0.612352
H      5.886465   -2.798477    0.832524
H      6.834951   -1.997408   -0.481559
H     -2.692903    5.398790    0.397627
H     -1.032235    5.736662    0.941604
H     -1.557987    6.066306   -0.805560
H     -5.547311   -2.848987   -0.606978
H     -4.609608   -3.929406    0.566282
H     -5.435624   -2.459719    1.186814
H     -2.418919   -1.691482   -1.652263
H     -2.405934   -3.429489   -1.007194
H     -3.826148   -2.780989   -1.864473
H      6.608706   -0.132327    0.873995
H      5.293812   -0.865273    1.839460
H     -0.076446    3.955648   -0.377105
H     -1.670677    3.679057   -1.252322
H      5.057818    0.472899   -0.903437
H      4.514722    1.090453    0.697972
H     -1.321014    3.498843    1.772485
H     -2.781453    3.152530    0.791225
H     -3.374078   -2.187213    2.233880
H     -2.588782   -3.525893    1.366902
H      0.499965   -0.057379   -1.680082
H      1.284643   -1.553762   -0.953199
H     -3.888305   -1.023234    0.113127
H      0.830640   -0.517910    1.301939
