47

C      0.723723   -1.007208    3.156664
C      4.833085   -0.739568   -0.781042
C      0.015166   -1.458956   -3.069103
C     -3.728631    0.450713    3.042728
C     -4.667368   -1.258292   -2.095259
C      1.286500    0.037612    2.259552
C      1.514943    3.184933   -0.833564
C      2.760941    3.010601   -1.363123
C      0.945744    2.152431   -0.121767
C      3.460448    1.823881   -1.200592
C     -1.396636   -0.056999    1.307083
C     -1.966119   -0.919231   -1.270990
C      1.036285   -0.155998    0.796328
C      1.654209    0.955707    0.040463
C     -0.369251   -0.319793    0.426798
C      2.903959    0.786993   -0.493261
C     -0.646316   -0.750689   -0.861447
C     -2.702635   -0.225099    0.898658
C     -2.999319   -0.658046   -0.395553
O      3.564204   -0.405625   -0.308812
O      0.349610   -1.026649   -1.778762
O     -3.801486    0.012593    1.710886
O     -4.289927   -0.828337   -0.815741
H      0.273586   -0.466987    4.036597
H      0.028135   -1.713340    2.707616
H      1.562122   -1.606188    3.621114
H      5.023136   -0.430155   -1.834921
H      4.965268   -1.848780   -0.641779
H      5.577968   -0.256885   -0.086504
H     -0.645428   -2.354554   -2.954558
H      0.951328   -1.795641   -3.572141
H     -0.516735   -0.671351   -3.642217
H     -4.669905    0.086463    3.542668
H     -2.839812    0.004534    3.534391
H     -3.718724    1.563829    3.114205
H     -4.319617   -0.563983   -2.906024
H     -4.395214   -2.308266   -2.309020
H     -5.795467   -1.241539   -2.127669
H      0.905722    1.069074    2.519841
H      2.386028    0.116726    2.422629
H      1.004371    4.124374   -0.984835
H      3.210432    3.808539   -1.918214
H     -0.032988    2.304703    0.287653
H      4.457419    1.662167   -1.613762
H     -1.235267    0.281154    2.316884
H     -2.210324   -1.252588   -2.269365
H      1.552840   -1.116278    0.507267
