47

C      3.917781   -2.650937    1.320818
C     -2.392087    6.456018    0.124281
C     -1.822224   -3.723525   -1.029830
C     -3.055451   -4.000608    1.060610
C      3.668658   -2.805208   -0.177440
C     -2.028763    5.031348   -0.315469
C      4.227853   -1.596995   -0.879334
C     -0.552818    4.885989   -0.123290
C     -1.767699   -1.954547    0.739657
C      1.628398    1.109951   -0.143459
C     -2.608122   -2.982943    0.029888
C      0.139571    1.113099   -0.397045
C      2.287482   -0.120071   -0.567698
C     -1.234172   -0.929900   -0.193794
C     -0.450244    2.419582    0.072058
O      1.590958   -1.030575   -1.085604
O     -1.466033   -0.934222   -1.429270
O     -1.306539    2.433462    0.985163
O      3.633635   -0.388615   -0.453380
O     -0.065272    3.622069   -0.487440
O     -0.443149    0.070187    0.354096
H      3.995605   -1.561588    1.528918
H      4.847550   -3.171524    1.635904
H      3.089807   -3.040072    1.920267
H     -2.287801    7.103397   -0.750295
H     -3.418661    6.433856    0.551207
H     -1.673193    6.774875    0.892890
H     -2.132332   -4.788816   -1.122094
H     -2.028263   -3.261289   -2.018992
H     -0.739065   -3.709279   -0.804167
H     -4.083047   -4.378359    0.840541
H     -3.040282   -3.541024    2.050999
H     -2.311188   -4.849767    1.084302
H      2.628242   -3.015859   -0.416971
H      4.265845   -3.688192   -0.488200
H     -2.306367    4.909625   -1.389366
H     -2.542796    4.294314    0.329605
H      4.060287   -1.666392   -1.974261
H      5.326112   -1.564114   -0.733576
H      0.027036    5.657220   -0.681175
H     -0.331763    5.091602    0.963538
H     -2.450186   -1.412237    1.437471
H     -0.989141   -2.455889    1.315962
H      1.801438    1.325691    0.941014
H      2.025551    2.024795   -0.668419
H     -3.521102   -2.525522   -0.383867
H     -0.114047    0.990988   -1.464753
