38

C      4.133902    1.826180   -0.983265
C     -3.466384    2.566381   -0.282718
C      3.034911    0.927115   -0.458796
C     -3.731815    1.576517   -1.379546
C      1.809757    1.780999   -0.247917
C     -2.513689    0.715499   -1.669459
C     -0.591175   -0.355149    1.854941
C      1.529112   -4.506101    1.061750
C     -0.886786   -1.526903    0.912166
C      0.629058    0.366583    1.406034
C      0.280276   -3.707477    1.105372
C     -1.097184   -0.862786   -0.427298
Cl     1.113104   -6.203215    1.380175
O      1.677791    0.339241    2.111767
O     -0.814365   -4.273873    1.348556
O     -0.413144   -1.030376   -1.425772
O      0.701677    1.088572    0.227752
O     -2.194099    0.020163   -0.480202
O      0.233100   -2.353257    0.892525
H      4.371773    1.630885   -2.050257
H      3.854685    2.894558   -0.866863
H      5.088903    1.707836   -0.426066
H     -2.507233    2.330006    0.246903
H     -3.447406    3.616011   -0.672016
H     -4.288173    2.504823    0.451257
H      2.881455    0.144186   -1.227494
H      3.426459    0.496389    0.484678
H     -4.621767    0.976932   -1.119559
H     -4.027611    2.160157   -2.294045
H      2.066508    2.689011    0.324863
H      1.522491    2.145767   -1.281459
H     -1.679063    1.409602   -1.926639
H     -2.707641    0.025274   -2.503421
H     -1.467345    0.298529    1.974859
H     -0.387439   -0.807257    2.844208
H      2.070947   -4.384091    0.100534
H      2.259453   -4.208800    1.861471
H     -1.843044   -2.017930    1.132981
