41

C      4.784142    1.428787   -0.281665
C     -1.178615   -2.002270    0.107432
C      4.022058    0.105961   -0.247904
C      3.531510   -0.092014    1.164285
C      2.764528   -1.366957    1.328986
C     -4.264056    1.593008   -0.096587
C      1.541939   -1.473051    0.466110
C     -3.047288    1.964891    0.727202
C     -3.988788    0.239153   -0.699101
C      0.534614   -0.398219    0.702371
C     -2.189809    0.715861    0.984368
C     -2.581934    0.142336   -1.253318
C     -0.633205   -0.657979   -0.238650
N     -1.564615    0.418306   -0.266015
H      5.254078    1.544799    0.704811
H      5.468165    1.447125   -1.133365
H      3.983546    2.220426   -0.373249
H     -0.802412   -2.815290   -0.582799
H     -2.280576   -2.073320    0.051903
H     -0.906448   -2.342532    1.132242
H      3.174260    0.124443   -0.980219
H      4.705334   -0.691140   -0.566822
H      4.466148   -0.220023    1.784102
H      2.973049    0.789257    1.516340
H      2.521859   -1.567037    2.369936
H      3.456513   -2.194509    0.990896
H     -4.431476    2.295297   -0.948093
H     -5.191449    1.557472    0.484940
H      1.786155   -1.474694   -0.615408
H      1.072249   -2.451463    0.675979
H     -3.272285    2.523491    1.632777
H     -2.430278    2.630665    0.054301
H     -4.248017   -0.546884    0.006721
H     -4.672024    0.132204   -1.572009
H      0.953183    0.620041    0.542250
H      0.132300   -0.402666    1.750005
H     -2.845828   -0.048020    1.395856
H     -1.447303    1.020485    1.758396
H     -2.514186    0.903231   -2.064577
H     -2.465258   -0.872392   -1.667569
H     -0.169775   -0.726781   -1.259406
