47

C     -1.235195    0.683631   -2.343193
C     -4.946204    1.148239   -0.926704
C      0.534690   -2.688841   -1.524446
C      3.659081    2.895999    2.233374
C      5.058161   -1.929398   -0.010984
C     -1.046509    1.620177   -1.211818
C     -2.245694   -1.614444    2.201150
C     -3.577401   -1.587834    1.852843
C     -1.331022   -0.756059    1.654886
C     -3.986141   -0.660051    0.922296
C      1.560737    1.303459    0.863162
C      2.326723   -1.046284   -0.207991
C     -0.778986    1.065188    0.130287
C     -1.788207    0.170334    0.713377
C      0.589863    0.561485    0.226324
C     -3.101797    0.245739    0.326671
C      0.996484   -0.628519   -0.310910
C      2.880222    0.914410    0.979212
C      3.258618   -0.289594    0.426642
O     -3.574957    1.159882   -0.603675
O      0.140229   -1.455703   -0.961075
O      3.849187    1.662547    1.618754
O      4.568135   -0.715138    0.519960
H     -0.256835    0.447521   -2.856171
H     -1.869402   -0.182229   -2.182541
H     -1.777390    1.278269   -3.153273
H     -5.234462    1.988744   -1.579367
H     -5.269188    0.160028   -1.340454
H     -5.514491    1.308405    0.031424
H      0.929094   -3.308171   -0.680109
H     -0.377973   -3.239688   -1.887695
H      1.264684   -2.562584   -2.334568
H      4.373015    2.988273    3.092854
H      3.940415    3.719582    1.513275
H      2.648025    3.112053    2.574344
H      6.165906   -1.766727   -0.150383
H      4.627545   -2.139333   -1.000935
H      4.889744   -2.780522    0.681837
H     -0.100604    2.219362   -1.481699
H     -1.818994    2.450874   -1.223401
H     -1.943256   -2.356493    2.939682
H     -4.316892   -2.254845    2.269852
H     -0.275432   -0.787517    1.940084
H     -5.021686   -0.585312    0.602886
H      1.305627    2.248365    1.306541
H      2.629056   -1.997912   -0.643331
H     -0.806522    1.980632    0.836804
