34

C     -1.638432   -1.645765   -1.332673
C     -1.737689    1.262588    1.132929
C     -3.580419   -0.003026    0.203168
C     -2.157843    1.323509   -1.288778
C      4.704661    0.440408   -0.013359
C      4.653495   -0.257804    1.180067
C      3.552066    0.615333   -0.751543
C      3.466611   -0.767003    1.617203
C     -1.317785   -0.780748   -0.154266
C      2.339289    0.099470   -0.312586
C      2.298953   -0.598669    0.884799
C      0.991840    0.133210   -0.879088
C      0.918413   -1.015919    1.089348
C     -2.146007    0.474176   -0.074655
N      0.104889   -0.558306   -0.011934
O      0.727472    0.701959   -1.967666
O      0.540616   -1.675545    2.092634
H     -0.916025   -2.502542   -1.302393
H     -2.651657   -2.122930   -1.197758
H     -1.533299   -1.169296   -2.304880
H     -1.852238    2.359336    0.916651
H     -2.344099    1.031255    2.027941
H     -0.667287    1.136194    1.405865
H     -4.155673    0.907237    0.479218
H     -4.012658   -0.492147   -0.681279
H     -3.550824   -0.639378    1.098215
H     -1.989227    0.816565   -2.240874
H     -3.160497    1.838324   -1.411893
H     -1.444531    2.182934   -1.216148
H      5.625461    0.849317   -0.376558
H      5.548241   -0.402421    1.768422
H      3.630670    1.168442   -1.682591
H      3.424760   -1.320234    2.562314
H     -1.671247   -1.388521    0.742149
