41

C      4.891378    1.925495   -0.504049
C      2.657878   -2.494596   -0.610026
C      0.078436    1.699635    0.452127
C     -0.058563   -2.062266   -1.408799
C     -5.251272    1.262066    0.422182
C     -5.300000    0.709842    1.707837
C     -4.165975    1.052678   -0.390764
C     -4.194307   -0.045330    2.081573
C      3.688135   -0.243737   -0.521677
C      2.415162    1.666130   -0.095260
C      3.645628    1.122764   -0.363633
C      2.585843   -1.037540   -0.426739
C      1.230729    0.878831    0.017447
C      0.227828   -1.441326   -0.049159
C     -3.080054    0.298911    0.004056
C     -3.114299   -0.257376    1.281607
C      1.315924   -0.451328   -0.151507
C     -1.823887   -0.077055   -0.629367
C     -1.859392   -1.001136    1.467734
N     -1.054824   -0.893742    0.291695
O     -1.488969    0.270595   -1.806503
O     -1.517729   -1.634874    2.473039
H      4.723391    2.797387   -1.174196
H      5.149755    2.323175    0.497398
H      5.745072    1.295298   -0.830208
H      2.126318   -3.110650    0.123104
H      2.561416   -2.823629   -1.663865
H      3.752186   -2.751196   -0.397021
H     -0.345349    2.258984   -0.381019
H     -0.587567    1.277493    1.189631
H      0.557736    2.557317    1.106275
H      0.203736   -3.129866   -1.434332
H     -1.125231   -2.003170   -1.630334
H      0.446123   -1.472317   -2.230997
H     -6.096993    1.861303    0.093487
H     -6.159832    0.884076    2.327138
H     -4.099126    1.474398   -1.401889
H     -4.193839   -0.490026    3.070481
H      4.641117   -0.752060   -0.739647
H      2.355878    2.742506    0.025150
H      0.517541   -2.185666    0.697983
