36

C      0.330854   -1.734116   -1.915532
C     -5.305244    1.394446   -0.025194
C     -5.628697    0.228318    0.620071
C      5.403768    1.627680    0.872272
C      5.546536    1.053926   -0.372260
C     -4.015370    1.515576   -0.501156
C     -4.729491   -0.786455    0.797261
C      4.280264    1.495476    1.636767
C      4.506505    0.307273   -0.877456
C      1.067223   -0.138769    1.382464
C      0.091123   -1.527709   -0.428571
C     -3.071933    0.518426   -0.346524
C     -3.432492   -0.624759    0.300196
C      3.215126    0.742506    1.142121
C      3.348635    0.163985   -0.103255
C      1.182061   -0.721120    0.146623
C     -1.673757    0.339666   -0.718849
C     -2.305642   -1.546056    0.360020
N      2.089381    0.582000    1.853640
N      2.305377   -0.554918   -0.551629
N     -1.199307   -0.930464   -0.285139
O     -0.976495    1.175232   -1.332717
O     -2.338343   -2.693922    0.902188
H      1.401101   -1.757547   -2.147077
H     -0.127529   -0.905348   -2.494736
H     -0.211919   -2.661064   -2.206699
H     -6.030863    2.173733   -0.149840
H     -6.640033    0.102129    1.007714
H      6.221095    2.221258    1.282503
H      6.477890    1.200162   -0.934806
H     -3.708641    2.426022   -1.022571
H     -5.036819   -1.684505    1.313137
H      4.160738    1.944750    2.618305
H      4.562656   -0.163325   -1.842821
H      0.149567   -0.256327    1.988313
H      0.092679   -2.526160    0.033237
