37

C      0.298302   -1.161987   -1.696299
C     -1.619829    2.375382   -0.446479
C      0.435833    0.295751   -1.434126
C     -4.386195   -1.689160    0.243467
C     -3.924472   -1.149801    1.448518
C     -3.781160   -1.300716   -0.929270
C      4.767030    0.004291    1.632861
C      5.247678   -0.455921    0.402479
C     -2.897665   -0.264105    1.420648
C     -2.725418   -0.383513   -0.905996
C      3.459713    0.376725    1.782647
C      4.324259   -0.502905   -0.618932
C     -1.162812    1.152016    0.321827
C     -2.245880    0.165062    0.254580
C      2.544015    0.317026    0.722119
C      1.173513    0.709344    0.885539
N      3.045172   -0.129630   -0.440085
N      0.141704    0.710198   -0.084637
O      0.854725    1.107491    2.069226
H     -0.413206   -1.399735   -2.540261
H      0.012679   -1.739903   -0.782332
H      1.266489   -1.589625   -2.024581
H     -2.329210    2.918104    0.212796
H     -2.217396    2.046275   -1.326860
H     -0.809035    3.059721   -0.697587
H      1.436024    0.631081   -1.805470
H     -0.267576    0.842926   -2.123427
H     -5.200344   -2.395992    0.229705
H     -4.429730   -1.483775    2.341143
H     -4.138437   -1.717360   -1.855772
H      5.457703    0.056639    2.459372
H      6.277257   -0.754929    0.263789
H     -2.539891    0.152395    2.346474
H     -2.336245   -0.133649   -1.873034
H      3.112370    0.725851    2.731967
H      4.658662   -0.854677   -1.589794
H     -1.088625    1.461103    1.405786
