34

C     -1.424311    0.417794   -2.020008
C     -1.996793    0.203568    1.770022
C     -2.547810   -1.374415   -0.097034
C     -3.442328    0.871973   -0.007301
C      4.642081   -1.148632    0.389605
C      4.844072    0.202064    0.595586
C      3.387989   -1.637234    0.081067
C      3.748845    1.033591    0.480727
C     -1.127775    0.670349   -0.529815
C      2.310572   -0.768480   -0.025688
C      2.481213    0.583050    0.174183
C      0.895092   -0.934266   -0.326568
C      1.222673    1.265305    0.008611
C     -2.184826    0.021870    0.279915
N      0.210481    0.312313   -0.309057
O      0.355994   -2.019211   -0.566769
O      1.097752    2.529760    0.139211
H     -0.760556   -0.403782   -2.407365
H     -1.187328    1.304692   -2.628967
H     -2.454157    0.095484   -2.181632
H     -1.097979   -0.268664    2.166118
H     -2.929872   -0.091634    2.273815
H     -1.865730    1.313254    1.929382
H     -2.098746   -2.078209    0.664196
H     -3.658070   -1.572349    0.006911
H     -2.304426   -1.647341   -1.127839
H     -3.169332    1.932213   -0.141282
H     -3.986390    0.450478   -0.882352
H     -4.148140    0.819083    0.843399
H      5.483142   -1.849878    0.470117
H      5.827477    0.586113    0.837633
H      3.216458   -2.684639   -0.081611
H      3.911642    2.099829    0.643980
H     -1.250915    1.765952   -0.421192
