30

C     -3.521601    1.221075    0.114481
C     -3.474978   -1.414547   -1.308384
C      4.507406   -1.147411    0.347865
C      4.669783   -0.097989   -0.517626
C      3.290398   -1.371810    0.962582
C      3.642041    0.765551   -0.807782
C     -1.191744    1.001128    0.721428
C     -2.164321    0.575303   -0.299439
C     -2.448868   -0.853706   -0.351585
C      2.221453   -0.521384    0.697491
C      2.417565    0.520928   -0.174819
C      0.830090   -0.514245    1.198195
C      1.153822    1.219109   -0.252750
N      0.165764    0.576637    0.599247
O     -1.906887   -1.657154    0.339276
O      0.432292   -1.384054    2.018047
O      0.916104    2.237971   -0.949238
H     -4.349195    0.695983   -0.400442
H     -3.629817    1.060136    1.206808
H     -3.489017    2.283901   -0.128609
H     -4.399101   -1.672640   -0.757592
H     -3.732020   -0.669183   -2.086353
H     -3.066667   -2.349102   -1.728141
H      5.326343   -1.840079    0.582573
H      5.622229    0.079440   -1.000089
H      3.138008   -2.195903    1.651252
H      3.740140    1.589520   -1.476660
H     -1.592503    0.725835    1.741096
H     -1.200056    2.139950    0.756861
H     -1.906664    0.996739   -1.311449
