40

C     -6.811749   -0.060294   -0.681136
C      5.905660    1.615414    0.442510
C      6.185357    0.482488    1.172923
C      4.668184    1.843905   -0.091359
C      5.207972   -0.460515    1.384799
C     -2.715332    0.624067   -0.514286
C     -2.570797   -0.638265    1.492772
C     -4.082007    0.369161   -0.528602
C     -3.920772   -0.878161    1.460399
C     -0.530843    0.341621    0.564771
C      1.124430   -1.056471   -2.479074
C     -1.969051    0.106352    0.514968
C     -4.701135   -0.377412    0.446741
C      3.657194    0.898928    0.110632
C      3.941691   -0.232973    0.842036
C      0.324044   -0.725993   -0.064635
C      0.087699   -0.974011   -1.480063
C      2.264936    0.885544   -0.337488
C      2.706996   -1.006972    0.874387
N      1.703009   -0.310329    0.152934
O      2.358150   -0.958684   -2.254543
O     -1.114840   -1.136178   -1.892019
O      1.746841    1.814343   -1.030719
O      2.589364   -2.130935    1.469702
O     -6.066159   -0.603678    0.388366
H     -7.857831   -0.431075   -0.591084
H     -6.779821    1.043698   -0.591118
H     -6.349419   -0.335670   -1.638461
H      6.709157    2.347566    0.292616
H      7.182136    0.308681    1.597173
H      4.456461    2.734017   -0.662598
H      5.362433   -1.367999    1.947094
H     -2.311327    1.233257   -1.328296
H     -1.948174   -1.040342    2.305500
H     -4.670154    0.788051   -1.357108
H     -4.363442   -1.468337    2.245695
H     -0.212783    0.372272    1.648940
H     -0.232516    1.308192    0.088970
H      0.852596   -1.218472   -3.542051
H      0.173842   -1.704792    0.484797
