48

C     -2.558037    5.302552   -0.092891
C      6.115699   -0.664123    0.189768
C     -3.540951    4.343751   -0.119403
C     -1.230332    5.016372   -0.319779
C      5.270991   -0.894395    1.246208
C      5.656986    0.025542   -0.901724
C     -1.444431   -5.580456   -0.570164
C     -2.546613   -5.485528    0.252173
C     -3.227933    3.034937   -0.379080
C     -0.907158    3.677419   -0.585869
C      3.957244   -0.429417    1.206900
C      4.350036    0.477630   -0.919400
C     -0.765947   -4.424845   -0.872316
C     -2.942865   -4.256212    0.748714
C     -1.529865    1.307615   -0.900424
C     -0.110233    0.980497    1.138897
C     -1.892641    2.721403   -0.611503
C      3.481954    0.264262    0.118700
C     -1.235682    0.508158    0.311552
C     -1.151246   -3.174055   -0.380182
C     -2.251098   -3.094378    0.437894
C     -0.631869   -1.828860   -0.534176
C     -2.431655   -1.688450    0.806452
C      2.112737    0.776050    0.022224
N     -1.422250   -0.908052    0.199306
O      0.380324   -1.587754   -1.235693
O     -3.382108   -1.327358    1.562478
O      1.806163    1.386691   -1.013497
O      1.169502    0.640526    0.953614
H     -2.842038    6.338719    0.117607
H      7.147722   -1.000546    0.161675
H     -4.588619    4.563133    0.058544
H     -0.499643    5.788483   -0.290211
H      5.641811   -1.436942    2.097946
H      6.316780    0.211379   -1.739105
H     -1.129673   -6.549619   -0.963347
H     -3.105300   -6.390484    0.508794
H     -3.942114    2.226138   -0.416973
H      0.141975    3.483930   -0.761204
H      3.326235   -0.631266    2.057052
H      4.046209    1.019136   -1.815469
H      0.112913   -4.455606   -1.520477
H     -3.811515   -4.176717    1.397598
H     -2.415565    0.907512   -1.469868
H     -0.715186    1.331182   -1.633518
H     -0.348269    0.720704    2.241973
H     -0.269544    2.126766    1.209518
H     -2.164898    0.804579    1.000686
