26

C     -2.045080   -1.074905   -2.138134
C      3.234583   -0.405672    2.301078
C      3.671863    0.361004    1.242461
C      1.950577   -0.882403    2.352822
C      2.818713    0.667352    0.203482
C     -2.414963    2.053434   -0.220269
C     -2.025767   -0.458616   -0.785141
C      1.071562   -0.582970    1.310257
C      1.525252    0.182773    0.263078
C     -2.798245    0.819275   -0.834764
C     -0.325126   -0.916688    1.048307
C      0.428436    0.339666   -0.664656
N     -0.742160   -0.346941   -0.182786
O     -1.355007    2.125612    0.443520
O     -3.880753    0.768930   -1.484355
O     -1.016444   -1.626052    1.855891
O      0.471634    0.975095   -1.735418
H     -2.231864   -0.278961   -2.899912
H     -2.881127   -1.811119   -2.260709
H     -1.117916   -1.609368   -2.411799
H      3.916988   -0.637302    3.109031
H      4.698083    0.730455    1.221053
H      1.583253   -1.484101    3.169222
H      3.136284    1.267414   -0.639866
H     -3.012986    2.937949   -0.307988
H     -2.659792   -1.113860   -0.106304
