49

C      8.284755    0.260556    1.080982
C      7.367286    0.348421    2.268148
C     -7.646783    0.408144    1.098437
C     -7.704704    0.499726   -0.273432
C     -6.504890    0.109377    1.778201
C     -6.528618    0.271106   -0.957485
C     -5.318502   -0.120975    1.083254
C      1.504535   -2.182417   -1.732578
C     -1.519828    0.075153    0.774510
C      4.124627   -0.427267    0.440136
C     -4.117807   -0.271758   -1.069778
C     -5.343018   -0.037392   -0.281646
C      1.734804   -1.140719   -0.665431
C     -0.581099   -0.429321   -0.284667
C      5.414810    0.231249    0.825084
C      2.499290   -0.000327   -1.225914
C     -2.900138    1.700034   -0.354706
Cl     0.596960   -3.563739   -1.146146
N      3.618720    0.309227   -0.683455
N     -2.099390    1.320530    0.505837
N      0.606503   -0.674058    0.020383
O     -0.981695   -0.633902   -1.588030
O      5.885806    1.227827    0.225635
O      2.031399    0.732612   -2.316370
O     -3.268363    3.090786   -0.312897
O      6.130151   -0.271859    1.888141
O     -3.427350    0.890582   -1.304452
H      8.014107   -0.526282    0.362365
H      8.262055    1.224622    0.509851
H      9.335285    0.098204    1.397999
H      7.148582    1.397458    2.547864
H      7.749908   -0.236845    3.124918
H     -8.572361    0.587832    1.640631
H     -8.590810    0.733480   -0.834274
H     -6.454834    0.035423    2.873389
H     -6.504485    0.327799   -2.045803
H     -4.412476   -0.358427    1.624501
H      1.134352   -1.786982   -2.691275
H      2.544025   -2.564707   -1.981955
H     -2.161853   -0.763541    1.056730
H     -0.875550    0.221527    1.706576
H      4.381475   -1.479597    0.226086
H      3.420846   -0.434314    1.304630
H     -3.535502   -1.143681   -0.700516
H     -4.447876   -0.635817   -2.105141
H      2.374256   -1.685342    0.109795
H     -0.539992   -0.167275   -2.359866
H      2.440375    1.656403   -2.436029
H     -2.566988    3.778467   -0.056035
