21

C     -2.408240   -0.724469    0.063967
C     -2.053989    0.638776    0.599961
C      1.510563   -1.142487   -0.022419
C     -0.551534    0.837673    0.686210
C      2.665401   -0.707674    0.764817
C      0.090560    0.708277   -0.646451
Br    -0.189479    2.621065    1.330116
N      0.971235   -0.161451   -0.894201
O      3.186336   -1.536009    1.556162
O      3.236992    0.556317    0.707882
O     -0.295146    1.579570   -1.657247
H     -1.551786   -1.391479   -0.050006
H     -2.864632   -0.623319   -0.962924
H     -3.205920   -1.225127    0.669089
H     -2.537894    1.416945   -0.016436
H     -2.427256    0.683517    1.651998
H      1.854828   -2.006654   -0.658862
H      0.753037   -1.601413    0.673193
H     -0.170957    0.071393    1.386888
H      4.132999    0.720806    1.187735
H     -0.145115    1.285741   -2.609538
