22

C     -3.136323   -0.178662    0.646826
C     -2.655403    0.859592   -0.308253
C     -1.527277    0.428484   -1.177618
C      2.565117    0.435281    0.291747
C      2.005975   -0.788488   -0.444454
C      0.762312   -0.376422   -1.124395
O      3.763781    0.122754    0.934404
O      2.960818   -1.160620   -1.366967
O      0.715275   -0.407940   -2.369893
O     -0.373265    0.049905   -0.448541
H     -2.542834   -0.265929    1.570009
H     -4.177500    0.109313    0.955310
H     -3.252367   -1.179859    0.165328
H     -2.407156    1.771008    0.272928
H     -3.504063    1.138671   -0.966220
H     -1.830558   -0.377752   -1.848619
H     -1.224866    1.310176   -1.796889
H      1.787443    0.790072    1.007663
H      2.748903    1.260195   -0.450372
H      1.824771   -1.566510    0.325777
H      4.475747    0.140687    0.254621
H      3.021471   -2.113956   -1.536075
