46

C     -0.885536    3.421292    2.293276
C     -1.281616    3.680654    0.869644
C      6.355723    2.151900   -0.608890
C     -5.596252   -4.673555   -0.179782
C      6.374057    1.139936   -1.523921
C      5.207389    2.394600    0.124251
C     -5.034904   -4.675943    1.083138
C     -5.054029   -3.859883   -1.147561
C      5.243896    0.366238   -1.709710
C      4.079815    1.624704   -0.059294
C     -3.936882   -3.872528    1.386949
C     -3.957820   -3.067073   -0.819377
C     -0.203474    3.269820   -0.105476
C      0.649312   -0.899420   -0.780527
C      4.099220    0.601669   -0.984726
C     -3.393256   -3.057493    0.418652
C     -0.557751   -0.558877    0.066947
C      2.916307   -0.229220   -1.198061
C     -2.241850   -2.218699    0.747222
C     -0.900354    0.894580   -0.132110
O      2.957203   -1.155364   -2.046350
O     -1.743836   -2.231273    1.895920
O     -2.054349    1.216852   -0.476472
O      0.037139    1.888776    0.058091
O      1.737276   -0.041813   -0.500629
O     -1.651876   -1.380791   -0.178772
H     -0.306318    2.488576    2.416186
H     -0.303922    4.260491    2.724075
H     -1.810817    3.315319    2.895367
H     -1.497748    4.786322    0.757618
H     -2.262980    3.202325    0.689996
H      7.256146    2.737149   -0.488792
H     -6.456453   -5.314882   -0.385822
H      7.238869    0.906922   -2.121068
H      5.253188    3.210979    0.835223
H     -5.479385   -5.321958    1.820183
H     -5.506612   -3.871825   -2.128588
H      5.273711   -0.435523   -2.441535
H      3.199184    1.845408    0.533921
H     -3.506266   -3.880862    2.373182
H     -3.531793   -2.427017   -1.581741
H     -0.566962    3.396519   -1.162986
H      0.688682    3.867444    0.096518
H      0.408709   -0.860133   -1.867442
H      1.005222   -1.931024   -0.582215
H     -0.258004   -0.703320    1.125487
