47

C      5.571504    1.563717   -1.408074
C     -5.589094   -3.137356    1.061936
C     -3.531022    3.478843    0.382760
C      4.421943    2.101097   -0.600102
C      3.456547    0.955923   -0.230668
C      4.218803   -0.046051    0.569844
C      3.540255   -1.261680    1.028243
C      2.415288   -1.231406    1.958198
C      1.157927   -0.540404    1.626056
C      0.497978   -1.036073    0.358928
C     -3.934687   -0.813808   -1.426790
C     -5.246905   -2.407992   -0.196455
C     -3.216781    2.476797   -0.662734
C     -2.773698    0.176005   -1.258196
C     -1.514634   -0.551947   -0.968328
O     -5.877107   -2.619022   -1.263296
O     -3.073779    2.763954   -1.873973
O     -1.160324   -1.451043   -1.769415
O     -0.709199   -0.302500    0.126304
O     -4.225516   -1.474164   -0.236379
O     -3.070160    1.152552   -0.302728
H      5.179023    0.768420   -2.070709
H      5.985072    2.412215   -1.998627
H      6.362580    1.220176   -0.720231
H     -5.331935   -4.198121    0.929318
H     -4.997489   -2.689378    1.876360
H     -6.670065   -3.073900    1.256504
H     -4.070657    3.056398    1.233747
H     -4.133264    4.324586   -0.020621
H     -2.575225    3.941698    0.752678
H      3.897788    2.861184   -1.214055
H      4.816142    2.582325    0.301537
H      2.602148    1.396248    0.254528
H      3.115104    0.535024   -1.206978
H      4.611713    0.541478    1.471876
H      5.146349   -0.272776   -0.045427
H      4.362418   -1.916572    1.497881
H      3.250798   -1.862040    0.103106
H      2.807932   -0.741475    2.921983
H      2.169247   -2.291084    2.310415
H      1.230544    0.539133    1.720414
H      0.413931   -0.900174    2.453976
H      0.327958   -2.109847    0.358487
H      1.182466   -0.804775   -0.479967
H     -3.564567   -1.558270   -2.177248
H     -4.777032   -0.235571   -1.841716
H     -2.698318    0.679657   -2.244398
