32

C      4.629137   -1.162534   -0.444920
C     -4.758125   -2.091886   -0.373393
C     -0.758138    3.709965   -0.026370
C      4.394949    0.228169    0.133770
C     -3.874348   -1.259234    0.496909
C      0.695501   -0.725710    0.636141
C     -0.288715   -0.019068   -0.216107
C      2.944169    0.347842    0.526870
C     -2.544272   -0.996559   -0.159314
C     -0.069028    1.379945   -0.457362
O      2.570730    1.434355    1.024771
O     -2.310343   -1.469146   -1.304485
O      0.820908    1.901001   -1.185185
O     -0.910912    2.336473    0.160882
O      2.045360   -0.653063    0.366434
O     -1.566730   -0.255549    0.446056
H      5.649513   -1.514070   -0.168941
H      3.850974   -1.820756    0.007384
H      4.493673   -1.126681   -1.551134
H     -5.765736   -1.591203   -0.419779
H     -4.362290   -2.214905   -1.406386
H     -4.952242   -3.108272    0.025143
H     -1.627829    4.184516   -0.529377
H     -0.718168    4.182485    0.990932
H      0.204593    3.956750   -0.505735
H      4.701924    1.025413   -0.547041
H      4.957276    0.261426    1.096922
H     -3.721268   -1.825835    1.453929
H     -4.339454   -0.292101    0.759967
H      0.457777   -1.848566    0.665434
H      0.489638   -0.425119    1.725811
H     -0.338524   -0.548084   -1.221825
