46

C      4.209582   -0.575564   -1.167965
C     -5.310096   -0.979555    0.487429
C      0.586164    1.411386   -4.758664
C      5.245885    0.822883    2.159461
C     -4.204554    1.167911    3.360143
C      4.065492    0.781521    2.858609
C     -2.901881    1.415372    2.983577
C      5.285593    0.383890    0.861717
C     -4.978212    0.383035    2.532620
C      2.951077    0.292924    2.217948
C     -2.379907    0.891055    1.805321
C      0.497773   -1.612820   -1.603315
C      4.151668   -0.106791    0.228561
C     -4.447294   -0.139452    1.352081
C      2.959540   -0.154302    0.918063
C     -3.149449    0.099717    0.964846
C     -0.661623   -0.691878   -1.794552
C      1.726090   -0.651562    0.335027
C     -2.566446   -0.428021   -0.261893
C     -0.329890    0.465245   -2.672888
O      0.693195   -0.653365    1.045586
O     -3.248697   -1.122753   -1.055418
O     -0.592125    1.619619   -2.291054
O      0.266446    0.315843   -3.915105
O      1.599673   -1.122358   -0.938642
O     -1.247437   -0.202366   -0.626012
H      5.229487   -0.362017   -1.591335
H      3.493108   -0.061939   -1.809041
H      4.121703   -1.678678   -1.167699
H     -6.332820   -1.079978    0.909279
H     -5.436679   -0.543649   -0.515245
H     -4.823100   -1.989158    0.423946
H     -0.018046    1.253231   -5.693454
H      1.663871    1.496550   -4.960799
H      0.214550    2.372651   -4.327950
H      6.128645    1.212515    2.674483
H     -4.628178    1.567019    4.272861
H      4.052206    1.134937    3.890413
H     -2.311513    2.028982    3.639230
H      6.250148    0.433302    0.335581
H     -6.006423    0.182588    2.821309
H      2.030136    0.275419    2.806156
H     -1.371005    1.082232    1.509243
H      0.842485   -1.891065   -2.644654
H      0.090319   -2.561706   -1.190316
H     -1.409461   -1.294030   -2.407491
