46

C      6.446798    2.696090   -0.078371
C     -4.857701    2.694371    1.094907
C     -1.095826   -5.630051    2.440753
C      3.347123    2.091741   -2.088784
C     -4.384125    1.497817   -2.415553
C      4.553045    2.583321   -1.663623
C     -4.823928    2.204437   -1.339308
C      2.700574    1.115627   -1.324859
C     -3.471040    0.482278   -2.213210
C      4.471048    1.172326    0.225030
C     -3.448527    0.885806    0.104808
C      0.742657   -1.926903    1.109008
C      5.137493    2.132546   -0.498463
C     -4.367416    1.913279   -0.069240
C      3.258465    0.644242   -0.155445
C     -2.991910    0.160588   -0.967166
C     -0.569944   -2.359984    0.504221
C      2.591659   -0.373413    0.647672
C     -2.033219   -0.925751   -0.863182
C     -1.173657   -3.434498    1.328229
O      3.152314   -0.765649    1.709455
O     -1.638285   -1.567472   -1.868754
O     -2.338795   -3.315206    1.773403
O     -0.486007   -4.608169    1.641567
O      1.386900   -0.940215    0.328278
O     -1.488080   -1.327000    0.364627
H      6.993398    3.109428   -0.951935
H      7.083298    1.925300    0.376641
H      6.231685    3.471842    0.686869
H     -4.015321    3.149611    1.654967
H     -5.545607    3.471565    0.746517
H     -5.415781    1.992502    1.765951
H     -2.180220   -5.625609    2.136653
H     -0.979118   -5.419971    3.508271
H     -0.657748   -6.601662    2.120206
H      2.926085    2.473363   -3.007358
H     -4.717005    1.693472   -3.431590
H      5.093612    3.346530   -2.228681
H     -5.545570    3.015771   -1.452196
H      1.749404    0.729436   -1.662348
H     -3.126090   -0.074749   -3.072458
H      4.914473    0.808078    1.140000
H     -3.094882    0.662602    1.101507
H      1.437418   -2.788365    1.178500
H      0.534947   -1.593115    2.145233
H     -0.306596   -2.846183   -0.480751
