46

C     -8.238983    0.601870   -0.460679
C      8.271993   -0.250123   -0.702327
C      0.477161    0.832866    3.940648
C     -6.563656   -1.125251   -1.117127
C     -5.768068    0.861997   -0.069462
C      6.032000   -0.892201    0.115183
C      6.256335    1.016411   -1.333387
C     -5.268424   -1.607589   -1.211656
C     -4.487791    0.361925   -0.174181
C      4.670127   -0.648771    0.142547
C      4.874410    1.231475   -1.281948
C     -0.422349   -0.981421   -0.388353
C     -6.826703    0.116650   -0.544008
C      6.823057   -0.040461   -0.636661
C     -4.232013   -0.869664   -0.743087
C      4.087028    0.390866   -0.538911
C      0.430402    0.106102    0.229822
C     -2.828176   -1.316323   -0.808731
C      2.652617    0.623344   -0.492383
C     -0.063916    0.479940    1.582231
O     -2.596289   -2.437164   -1.326665
O      2.171200    1.602492   -1.144484
O     -1.250172    0.784023    1.840586
O      0.848808    0.491727    2.621296
O     -1.780307   -0.580771   -0.340044
O      1.786022   -0.181297    0.236017
H     -8.780699    0.034344    0.309844
H     -8.223625    1.665557   -0.144145
H     -8.742340    0.541616   -1.441077
H      8.602902   -0.688510    0.256399
H      8.758355    0.726158   -0.919429
H      8.501476   -0.967904   -1.519624
H      1.299563    1.454411    4.350542
H     -0.431949    1.461508    3.864477
H      0.346562   -0.051679    4.588779
H     -7.408449   -1.678331   -1.475613
H     -5.979155    1.834275    0.378684
H      6.480490   -1.714718    0.656281
H      6.882910    1.665597   -1.910048
H     -5.063806   -2.571808   -1.656583
H     -3.645406    0.958406    0.205073
H      4.025801   -1.290989    0.716746
H      4.471563    2.061741   -1.835752
H     -0.249527   -1.965504    0.048472
H     -0.149198   -1.044506   -1.462499
H      0.250219    0.999685   -0.404765
