46

C      1.140049   -3.592403    0.864782
C      6.926721   -0.537245    1.112450
C     -6.566442    2.766760   -0.525327
C      6.253915   -1.306281    0.168307
C      6.473095    0.740335    1.292210
C     -6.791526    1.656996   -1.321072
C     -5.659090    2.781235    0.513120
C      5.192346   -0.784533   -0.532500
C      5.410749    1.275926    0.597321
C     -6.054856    0.514336   -1.039183
C     -4.958050    1.635903    0.753152
C      3.601793    1.010351   -1.123782
C     -4.351424   -0.684287    0.315933
C     -0.105322    0.791969   -0.428438
C      4.751877    0.494037   -0.340220
C     -5.158330    0.504165   -0.025020
C     -0.644220   -0.611609   -0.602686
C      2.345134    0.649507   -0.398988
C     -3.069695   -0.673293   -0.483125
C      0.268951   -1.707052   -0.339504
O      2.384101    0.004430    0.659141
O     -3.096978   -0.708670   -1.733719
O      1.221387   -1.889956   -1.151141
O      0.175206   -2.567436    0.734089
O      1.153960    1.050973   -0.934800
O     -1.847324   -0.622237    0.149300
H      2.172598   -3.180912    0.663906
H      1.101787   -4.054673    1.870088
H      1.014132   -4.414704    0.136833
H      7.761816   -0.901490    1.684066
H     -7.138673    3.651601   -0.744345
H      6.603334   -2.312398    0.019013
H      6.961838    1.401940    2.024701
H     -7.505727    1.662302   -2.134003
H     -5.485086    3.640878    1.128685
H      4.705407   -1.427507   -1.254450
H      5.053054    2.296337    0.744569
H     -6.228645   -0.341163   -1.651093
H     -4.237004    1.623556    1.569683
H      3.541254    0.523406   -2.116905
H      3.666641    2.110697   -1.239267
H     -4.865486   -1.635432    0.020138
H     -4.139686   -0.758226    1.385312
H     -0.813019    1.536888   -0.909219
H     -0.188204    1.078290    0.672315
H     -0.976357   -0.691308   -1.692735
