26

C     -0.548941    3.463100    0.254423
C     -4.149202   -0.965988    0.015821
C      4.119274   -1.569834   -0.520606
C     -0.428673   -0.855343   -0.477402
C      0.691896   -0.156521    0.268271
C     -2.798815   -1.209930   -0.545327
C      2.920473   -1.190049    0.252312
C      0.552593    1.305251    0.002380
Cl    -4.910840    0.415135   -0.759892
Cl     5.395935   -0.340431   -0.395041
O     -2.594399   -1.938305   -1.541936
O      2.771869   -1.404056    1.475879
O      1.370280    1.939435   -0.740976
O     -0.467185    2.063106    0.542382
O     -1.703674   -0.599295    0.068923
O      1.883850   -0.554113   -0.409006
H     -0.370811    3.545495   -0.847101
H      0.258498    3.994383    0.813255
H     -1.524348    3.850480    0.573948
H     -4.071671   -0.765505    1.120011
H     -4.798310   -1.857920   -0.156646
H      3.836209   -1.711216   -1.594697
H      4.484649   -2.556421   -0.142706
H     -0.213720   -1.944253   -0.496680
H     -0.401884   -0.556762   -1.563506
H      0.696947   -0.400442    1.332556
