26

C     -1.779949   -3.332785   -0.278283
C      0.805426   -0.103601    1.352733
C     -0.537519    0.142340    0.749516
C      3.440146   -0.575483   -1.398161
C     -1.559691    3.713715   -0.114889
C     -1.119685   -0.986572    0.000534
C      2.201046   -0.772804   -0.589650
C     -1.439495    2.417730    0.546259
Cl     4.898810   -0.838971   -0.380340
Cl     3.530153    1.014747   -2.134516
Cl     0.072540    4.462059   -0.156209
Cl    -2.589830    4.789840    0.842265
O     -1.575885   -0.784339   -1.152357
O      1.379787   -1.660334   -0.931831
O     -2.095347    2.197356    1.595750
O     -1.197412   -2.277029    0.501804
O      1.908345   -0.027979    0.519545
O     -0.639316    1.378036    0.101464
H     -2.038538   -4.182579    0.384814
H     -1.088525   -3.629189   -1.093430
H     -2.695496   -2.932306   -0.764993
H      0.977062    0.607204    2.218782
H      0.833327   -1.115007    1.842062
H     -1.237163    0.232305    1.661435
H      3.475347   -1.368383   -2.169674
H     -1.928139    3.632029   -1.152628
