26

C     -2.854416   -3.394590    0.093405
C      0.770783   -1.183976    0.250666
C     -0.464347   -0.378644    0.169902
C     -1.592984   -1.307041   -0.235396
C      2.576648    0.415722   -0.057318
C     -0.885847    1.993839   -0.286543
C      3.858498    1.040510    0.436525
C     -0.954213    3.183990   -1.150847
Cl     4.429645    2.283075   -0.664716
Cl     5.083173   -0.248486    0.592181
Cl     3.537606    1.665568    2.058445
Cl    -1.614523    4.533761   -0.156964
Cl     0.636615    3.709931   -1.699158
Cl    -2.052305    2.939053   -2.528313
O     -2.323627   -0.982686   -1.186824
O      2.044957    0.788982   -1.128812
O     -1.193526    2.096243    0.925746
O     -1.812545   -2.496252    0.436783
O      1.941961   -0.584108    0.644389
O     -0.503575    0.713594   -0.681897
H     -3.585065   -2.888258   -0.567328
H     -3.337343   -3.784663    1.003293
H     -2.387155   -4.233187   -0.470247
H      0.855456   -1.753910   -0.717351
H      0.579560   -2.024610    0.993470
H     -0.753429   -0.103858    1.234435
