66

C     -1.501122    2.830176    0.630628
C      6.189423   -3.764140    1.607352
C      4.174713    4.622474   -0.539393
C     -4.395493   -0.236444    4.349957
C     -6.027547    0.797034   -3.110727
C      4.821688   -3.832287    1.706651
C      6.794633   -2.635408    1.085316
C      3.168660    4.205016   -1.377218
C      5.148116    3.699307   -0.221133
C     -4.261637    0.645859    3.302694
C     -4.429036   -1.594339    4.103749
C     -6.165492   -0.559182   -3.079984
C     -4.811887    1.347952   -2.762909
C      4.001849   -2.781227    1.290943
C      5.994583   -1.576216    0.665048
C      3.149996    2.910668   -1.870034
C      5.136578    2.408963   -0.707675
C     -4.160979    0.153181    1.998118
C     -4.326164   -2.062708    2.786087
C     -5.103307   -1.365272   -2.706198
C     -3.739816    0.534651   -2.385651
C      0.931784   -1.023061   -0.321104
C      4.625118   -1.663449    0.772727
C      4.126572    1.991042   -1.548312
C     -4.191998   -1.189015    1.731717
C     -3.868797   -0.835448   -2.351348
C     -0.503147   -0.599135   -0.487285
C     -0.525297    0.881886   -0.374649
O      0.262786    1.614455   -1.042380
O      3.618315   -1.872375   -1.984750
O     -2.407925   -3.548612   -0.288740
O     -1.449708    1.441313    0.497275
O      1.636394   -0.261572   -1.286481
O      3.819727   -0.610621    0.355487
O      4.078609    0.700978   -2.059454
O     -4.093608   -1.661366    0.460007
O     -2.817646   -1.649225   -1.980625
O     -1.411605   -1.157806    0.300279
P      3.274903   -0.589010   -1.266983
P     -2.631092   -2.061276   -0.332656
H     -2.056073    3.069858    1.566573
H     -1.993409    3.244904   -0.276281
H     -0.446158    3.190613    0.740900
H      6.790140   -4.604719    1.942640
H      4.232998    5.630943   -0.125766
H     -4.477306    0.116012    5.388812
H     -6.840801    1.451330   -3.398928
H      4.323974   -4.696396    2.108105
H      7.865669   -2.586222    1.009323
H      2.403920    4.931520   -1.626733
H      5.941633    4.044573    0.445536
H     -4.239180    1.699038    3.532733
H     -4.533858   -2.253864    4.937841
H     -7.132736   -0.981931   -3.357582
H     -4.715878    2.430367   -2.791823
H      2.929192   -2.830910    1.367166
H      6.427380   -0.677165    0.251750
H      2.338633    2.654140   -2.516068
H      5.922766    1.706242   -0.434869
H     -4.058257    0.886212    1.219819
H     -4.357148   -3.127806    2.641971
H     -5.281682   -2.432208   -2.703716
H     -2.821733    1.038088   -2.128187
H      1.098570   -2.096522   -0.441495
H      1.301972   -0.618128    0.653184
H     -0.753773   -0.843730   -1.563249
