25

C     -3.281738    0.756080   -0.271855
C     -1.826237   -0.415776    1.333501
C      2.850860   -0.788390    0.805412
C     -0.899288    1.254962   -0.293608
C     -1.886550    0.161124   -0.037644
C      2.500895   -0.472015   -0.623529
C      1.093574   -0.097170   -0.815155
O      2.476317    0.233561    1.658647
O      2.877609   -1.494063   -1.461653
O      0.421517   -0.727187   -1.687688
O      0.432911    0.886356   -0.125490
H     -3.316188    1.263634   -1.262935
H     -3.444806    1.514040    0.519688
H     -4.031665   -0.023674   -0.144555
H     -2.863294   -0.462893    1.778336
H     -1.494135   -1.476046    1.289344
H     -1.209821    0.137665    2.049408
H      3.978321   -0.832932    0.852028
H      2.493914   -1.757768    1.154469
H     -1.118880    2.089453    0.404089
H     -1.116416    1.660511   -1.315048
H     -1.789414   -0.658404   -0.795534
H      3.116625    0.427865   -0.905986
H      2.855835    1.072837    1.320307
H      3.180053   -2.251769   -0.916820
