22

C      2.298662   -0.543225    0.879246
C      2.650479    1.326870   -0.610764
C     -2.391012   -0.190669    0.656722
C      1.811227    0.124203   -0.396652
C     -1.996483    0.036111   -0.790371
C     -0.547460   -0.221405   -0.962434
O     -3.711563    0.176372    0.887054
O     -2.774754   -0.691707   -1.656416
O     -0.181171   -1.043481   -1.843173
O      0.441712    0.369585   -0.231814
H      2.132619    0.210125    1.703276
H      1.749092   -1.461876    1.115793
H      3.388904   -0.703739    0.786169
H      2.985234    1.726783    0.355964
H      2.214199    2.093014   -1.273358
H      3.587783    0.984421   -1.140098
H     -1.734713    0.380865    1.315659
H     -2.326275   -1.282239    0.877638
H      2.010956   -0.629066   -1.214132
H     -2.170831    1.112124   -1.001423
H     -4.272955   -0.300524    0.216496
H     -3.163649   -1.472540   -1.226982
