32

C      2.262829    2.431597   -1.226807
C      2.929986    1.387838    0.863111
C     -1.568174    2.907637    1.508094
C     -1.415733   -4.846065   -0.537821
C     -1.886190   -0.158634   -0.781494
C      2.236689    1.137734   -0.462493
C     -1.752237    1.508414    1.037573
C     -1.254396   -3.489439    0.030515
C     -0.827179   -1.073234   -0.250035
C      0.544138   -0.604396   -0.566726
O     -1.945451    0.636250    1.920059
O     -1.365689   -3.350196    1.270620
O      1.399247   -1.291547   -1.181011
O     -1.720418    1.139235   -0.290825
O      0.961830    0.662377   -0.184901
O     -0.990729   -2.400366   -0.753202
H      3.324836    2.607632   -1.524857
H      1.674267    2.416329   -2.152058
H      1.987870    3.282053   -0.562899
H      2.719131    2.438885    1.149518
H      4.011618    1.154166    0.821921
H      2.459538    0.759621    1.655451
H     -0.901995    3.433314    0.801736
H     -1.175166    2.924339    2.535935
H     -2.560483    3.409747    1.534600
H     -0.532491   -5.086626   -1.171322
H     -1.516456   -5.607921    0.246836
H     -2.352341   -4.863996   -1.139180
H     -1.783867   -0.139765   -1.892790
H     -2.877534   -0.570845   -0.531392
H      2.875311    0.410237   -1.012476
H     -0.960764   -1.164376    0.846319
