28

C      3.441060    2.072506    0.554449
C     -4.366317    1.371979   -0.614428
C     -3.231819    1.519153   -1.391318
C     -4.358503    0.554084    0.494117
C     -2.067486    0.837362   -1.055804
C     -3.173400   -0.119355    0.807714
C      2.000902   -2.110303   -1.218226
C     -2.046003    0.016571    0.049729
C      1.543082   -1.197413   -0.123688
C     -0.811702   -0.700731    0.397915
C      2.613477   -0.222694    0.196889
O      3.233216   -2.656163   -0.809584
O     -0.749398   -1.458723    1.397305
O      3.775882   -0.646660    0.439529
O      2.407473    1.141617    0.245626
O      0.326003   -0.565532   -0.364421
H      4.411293    1.580884    0.701312
H      3.487155    2.783638   -0.295015
H      3.150044    2.646179    1.455723
H     -5.267319    1.917870   -0.898963
H     -3.296690    2.171939   -2.246285
H     -5.212458    0.417956    1.113378
H     -1.188661    0.954549   -1.661939
H     -3.177642   -0.763545    1.686115
H      1.316158   -2.982162   -1.324782
H      2.159073   -1.579474   -2.172392
H      1.413413   -1.826368    0.797830
H      3.669167   -3.157166   -1.515969
