44

C      5.600872    2.628087    0.266237
C     -5.498463    1.579565   -2.699756
C     -4.540828   -0.205042    2.993678
C      5.065168    1.288161   -0.188288
C      3.978189    0.843094    0.774416
C      3.439398   -0.512002    0.311182
C      2.370576   -0.883872    1.312214
C      1.791265   -2.208211    0.945210
C      1.163035   -2.189335   -0.427965
C     -2.602033   -0.385316   -1.322247
C     -4.353620    0.611287   -2.653508
C     -3.463771    0.223806    2.061611
C     -2.092847   -0.270903    0.115740
C     -1.002162   -1.306025    0.244761
O     -4.029777   -0.054108   -3.658298
O     -2.867125    1.321905    2.173374
O     -1.112061   -2.249520    1.067005
O      0.135868   -1.245147   -0.530112
O     -3.687604    0.504095   -1.440758
O     -3.095861   -0.611004    1.026995
H      6.270762    3.072381   -0.485944
H      6.069499    2.523717    1.267446
H      4.727918    3.320276    0.359231
H     -6.434458    0.989528   -2.605503
H     -5.518252    2.075554   -3.692558
H     -5.456343    2.297647   -1.879625
H     -5.100443    0.681222    3.356834
H     -4.093597   -0.720715    3.882765
H     -5.210325   -0.942140    2.518625
H      4.639023    1.391959   -1.206977
H      5.858581    0.521875   -0.232577
H      3.138893    1.538302    0.804514
H      4.401020    0.720823    1.785492
H      4.205260   -1.289384    0.307600
H      2.997767   -0.416949   -0.707755
H      2.848591   -0.913795    2.324556
H      1.582488   -0.087512    1.306717
H      1.064390   -2.507465    1.728352
H      2.569760   -3.020550    0.969798
H      0.745132   -3.220184   -0.673062
H      1.932279   -2.034479   -1.208283
H     -3.014989   -1.411207   -1.453121
H     -1.790196   -0.154372   -2.036427
H     -1.630978    0.705955    0.294780
