49

C      1.265870    4.034703    1.845234
C      3.542139    1.033423    0.915342
C     -4.036659   -0.843730   -1.455647
C     -0.046166    3.438687    1.447172
C      6.481066    0.919802   -1.408509
C     -6.239660   -3.478088    0.021312
C      5.953574    0.325905   -2.529294
C     -5.533279   -3.886935    1.132436
C      5.673994    1.129662   -0.326101
C     -5.750593   -2.498944   -0.805273
C      4.633503   -0.037415   -2.525923
C     -4.335592   -3.302293    1.400697
C      0.170616   -0.460192   -0.664002
C      4.324958    0.768440   -0.297469
C     -4.522575   -1.898293   -0.531830
C      3.815179    0.175647   -1.427903
C     -3.845148   -2.319443    0.570489
C     -0.758950   -0.180511    0.459909
C      2.423984   -0.223334   -1.479177
C     -2.561120   -1.722664    0.894759
C     -0.911781    1.264058    0.767844
O      2.009825   -0.817205   -2.522786
O     -1.946637   -2.114660    1.905391
O     -2.044525    1.838673    0.679485
O      0.155367    2.048563    1.161522
O      1.492777   -0.012609   -0.479182
O     -2.025051   -0.730142    0.091590
H      1.943226    4.084405    0.960481
H      1.126418    5.069548    2.263314
H      1.757953    3.444502    2.635877
H      3.020795    0.106452    1.263231
H      4.225420    1.306756    1.748643
H      2.847635    1.874937    0.739356
H     -3.091143   -1.096879   -1.949170
H     -3.917088    0.146043   -0.945333
H     -4.790414   -0.664982   -2.243662
H     -0.767822    3.546380    2.291839
H     -0.455605    3.987894    0.598522
H      7.519272    1.198913   -1.428347
H     -7.200661   -3.957903   -0.180177
H      6.537905    0.133420   -3.414661
H     -5.917736   -4.671509    1.800678
H      6.088912    1.592494    0.544703
H     -6.321651   -2.189411   -1.677528
H      4.205694   -0.507612   -3.406616
H     -3.757441   -3.619634    2.288189
H     -0.198202    0.015523   -1.599148
H      0.184097   -1.562931   -0.821421
H     -0.424684   -0.687513    1.378066
