29

C      3.760039   -0.526671   -1.431593
C     -2.678518   -2.777127    2.152825
C     -0.741766    4.047241    1.024876
C      2.751250   -1.618165   -1.170804
C     -1.409905   -0.393733   -0.474581
C     -2.486751   -2.011315    0.909749
C     -0.616012    2.945174    0.024673
C     -0.300647    0.622079   -0.544005
C      1.040540    0.000181   -0.458850
O     -3.266539   -2.243021   -0.047878
O     -0.688861    3.172405   -1.206632
O      1.861251    0.421598    0.390838
O      1.460890   -1.039415   -1.272203
O     -1.496416   -1.055440    0.745853
O     -0.415437    1.635973    0.404465
H      4.735184   -0.940351   -1.787750
H      3.352575    0.111070   -2.264525
H      3.971483    0.102452   -0.562071
H     -3.708227   -2.636468    2.568384
H     -1.974223   -2.476129    2.940681
H     -2.604436   -3.876588    1.929436
H     -1.767678    3.991668    1.429719
H     -0.047959    3.853931    1.872300
H     -0.493572    5.026990    0.610094
H      2.888416   -2.051715   -0.137127
H      2.870880   -2.377435   -1.943111
H     -2.359565    0.149483   -0.719887
H     -1.235463   -1.145739   -1.270715
H     -0.400533    1.089069   -1.546906
