29

C      3.877461   -1.757418    0.114390
C      3.780867   -0.268653   -0.014397
C     -4.559412   -1.311671    0.387560
C     -0.670606    3.253597   -1.929766
C     -0.810117   -0.804421    0.516075
C      0.089022    0.391552    0.454581
C     -3.087054   -1.522632    0.473289
C     -0.486095    2.427695   -0.714828
C      1.482306   -0.065101    0.645486
Cl    -5.199609   -1.087477    2.023707
Cl    -1.220979    4.878458   -1.474939
O     -2.690118   -2.711197    0.593699
O     -0.725077    2.943985    0.402867
O      1.764987   -0.716660    1.675193
O      2.484681    0.199030   -0.267980
O     -2.184634   -0.443735    0.421962
O     -0.061622    1.110274   -0.753108
H      3.712414   -2.096935    1.177775
H      4.926617   -2.065066   -0.157960
H      3.193849   -2.314358   -0.541815
H      4.237430    0.201213    0.879556
H      4.419579    0.044527   -0.877308
H     -5.015374   -2.196542   -0.124429
H     -4.794970   -0.440058   -0.265271
H     -1.387874    2.780753   -2.640955
H      0.299440    3.378809   -2.488933
H     -0.594950   -1.516692   -0.316702
H     -0.602342   -1.335282    1.469246
H     -0.177820    1.044003    1.333003
