29

C      4.218235   -1.120848   -0.060900
C     -4.195416   -1.096292    0.546424
C     -1.579158    2.818910   -1.962201
C      3.619536   -0.539343    1.178278
C     -0.423621   -1.261932   -0.034117
C     -2.709307   -0.991127    0.781196
C     -1.198910    2.055301   -0.757765
C      0.018174    0.169286    0.232495
C      1.497508    0.120475    0.266584
O     -2.257519   -0.579982    1.876546
O     -1.594758    2.380569    0.399275
O      2.128429    0.719975   -0.626305
O      2.234908   -0.546829    1.224143
O     -1.807858   -1.344653   -0.203374
O     -0.384216    0.949415   -0.898626
H      3.894094   -2.168485   -0.150772
H      5.333047   -1.167314    0.110196
H      4.083711   -0.515526   -0.964023
H     -4.681497   -0.999248    1.516353
H     -4.372898   -2.102419    0.085517
H     -4.442919   -0.277941   -0.166555
H     -1.584635    3.910186   -1.715538
H     -2.581074    2.474810   -2.283704
H     -0.810708    2.663007   -2.745362
H      3.998361    0.486647    1.316795
H      4.012681   -1.141025    2.044362
H      0.042274   -1.606665   -0.987681
H     -0.049485   -1.868903    0.818482
H     -0.406980    0.579950    1.160277
