29

C     -3.368483   -2.823253   -0.082691
C     -3.431957   -1.504778    0.619044
C      1.156546   -0.983097   -0.308595
C      0.182482   -0.194091    0.521810
C      4.461587    0.918671    0.027160
C     -0.485355    3.514126   -0.104842
C     -1.008153   -1.067020    0.756995
C      3.214098    0.183893    0.362978
C     -0.066627    2.245216    0.525751
Cl     4.112004    2.407616   -0.878157
Cl     5.385388   -0.149044   -1.083866
Cl     0.370149    3.789885   -1.644957
Cl    -2.232076    3.523599   -0.479346
O     -0.846943   -2.189198    1.296330
O      2.960937   -0.007327    1.580072
O      0.458876    2.234417    1.673018
O     -2.291638   -0.699394    0.407914
O      2.342543   -0.286266   -0.580838
O     -0.220464    1.009321   -0.088910
H     -2.332781   -3.229341   -0.178564
H     -3.841726   -2.787489   -1.102696
H     -3.936821   -3.565532    0.514972
H     -3.660806   -1.657333    1.683433
H     -4.297948   -0.933040    0.182049
H      1.316285   -1.952072    0.190863
H      0.665601   -1.207588   -1.285123
H      0.624041   -0.005037    1.530282
H      5.090682    1.073994    0.901406
H     -0.319442    4.340162    0.613245
