29

C     -2.864237   -2.982639   -0.819252
C     -3.088454   -2.262212    0.497643
C      4.483299    0.113126    0.804661
C     -0.123229    3.782084   -1.494656
C      0.759504   -0.512461    0.292518
C     -0.439559    0.424318    0.270956
C      3.171624   -0.485921    0.566021
C     -0.273900    2.763185   -0.421461
C     -1.614928   -0.424221   -0.029596
Cl     5.105573    0.968353   -0.641110
Cl    -0.110761    5.378649   -0.680860
O      3.096920   -1.744741    0.363689
O     -0.384980    3.040810    0.795871
O     -2.282707   -0.195277   -1.056785
O     -1.979758   -1.474365    0.817217
O      1.961730    0.177959    0.531701
O     -0.299411    1.394365   -0.741983
H     -3.836002   -3.200223   -1.259204
H     -2.382112   -3.959036   -0.524536
H     -2.187358   -2.421715   -1.485955
H     -4.004411   -1.618033    0.320033
H     -3.329600   -2.929868    1.333667
H      5.245891   -0.711672    0.988581
H      4.575773    0.788295    1.650373
H     -0.916955    3.784395   -2.238690
H      0.859898    3.693121   -2.014287
H      0.803191   -1.116072   -0.637001
H      0.598695   -1.213920    1.137642
H     -0.543736    0.943716    1.238264
