35

C     -3.679171    2.482729    0.413278
C     -1.282964   -2.628430    1.163893
C      4.761384    0.494309    0.477830
C     -2.274779    1.890070    0.364420
C     -1.579058   -1.616974    0.081690
C      4.409667   -0.239805   -0.787314
C     -2.180288    1.056570   -0.866076
C     -0.871004    0.391266   -1.085790
C      0.781841   -1.307725   -0.289464
C     -0.466762   -0.552251    0.025063
C      1.989210   -0.468826   -0.386124
O      1.982588    0.778059   -0.207092
O      3.248319   -1.002083   -0.687824
H     -4.295657    2.000825    1.210436
H     -4.189269    2.421947   -0.568032
H     -3.651383    3.572643    0.670529
H     -0.989473   -2.179053    2.120766
H     -2.244154   -3.174617    1.348306
H     -0.557308   -3.401037    0.853924
H      5.872232    0.554957    0.624598
H      4.415116    1.555047    0.438367
H      4.371554   -0.011473    1.390536
H     -2.144057    1.254756    1.262844
H     -1.576391    2.732482    0.405182
H     -1.674962   -2.154043   -0.871342
H     -2.551969   -1.159364    0.323204
H      5.250228   -0.943948   -0.996153
H      4.411807    0.492749   -1.613285
H     -2.346487    1.752781   -1.742246
H     -3.046366    0.368765   -0.908652
H     -0.070790    1.146423   -1.219897
H     -0.932872   -0.144117   -2.066128
H      0.645627   -1.827222   -1.247894
H      0.940690   -2.062601    0.501413
H     -0.475098   -0.072810    1.010105
