35

C      5.040593   -0.379277    0.938907
C     -4.588079   -0.322022    1.101762
C     -3.902807   -0.366550   -1.226020
C      0.674779    0.241318    1.303257
C      4.850178    0.813098    0.038752
C     -2.145633   -0.334527    0.557044
C     -1.098272    0.129247   -0.397936
C      1.205381    0.407988   -1.076590
C     -3.513408    0.152589    0.123783
C      0.306261   -0.307025   -0.055781
C      2.630403    0.164449   -0.807709
O      3.143355   -0.939169   -1.132096
O      3.473952    1.090280   -0.204563
H      5.981197   -0.219394    1.511992
H      5.168919   -1.329757    0.363005
H      4.224968   -0.447053    1.683486
H     -5.550073   -0.268002    0.545018
H     -4.637837    0.297155    2.006312
H     -4.353510   -1.384252    1.345752
H     -5.029566   -0.263551   -1.290319
H     -3.505085    0.215000   -2.065665
H     -3.721335   -1.463200   -1.310257
H      0.661666    1.367436    1.241048
H      0.008213   -0.045139    2.114617
H      1.727180   -0.064607    1.555177
H      5.352785    0.644904   -0.936587
H      5.262274    1.730550    0.530254
H     -1.947526   -0.078477    1.612617
H     -2.172521   -1.448858    0.501532
H     -1.055637    1.247888   -0.482167
H     -1.332653   -0.221570   -1.425584
H      0.926390    1.474551   -1.044667
H      0.956365    0.047550   -2.105236
H     -3.481157    1.256452    0.106429
H      0.440242   -1.398025   -0.111474
