35

C      5.192028    0.698664    0.505643
C     -4.031122    1.807531    0.698569
C     -3.623512    0.123551   -1.110183
C      0.462342   -2.385611    0.042185
C      4.621924    0.495067   -0.870063
C     -1.930016    0.527714    0.635353
C     -1.387015   -0.828576    0.249785
C      0.851620    0.021844   -0.374297
C     -3.433493    0.468988    0.329758
C      0.101239   -0.961141    0.486198
C      2.319107   -0.142840   -0.267441
O      2.764384   -1.039963    0.493049
O      3.239409    0.614827   -0.940352
H      4.665289    0.142285    1.296047
H      6.261166    0.396516    0.487868
H      5.186656    1.778236    0.798034
H     -4.057829    2.495280   -0.152107
H     -3.424370    2.223396    1.525460
H     -5.071738    1.684205    1.066273
H     -4.556725    0.624175   -1.478632
H     -2.786528    0.419274   -1.760674
H     -3.758273   -0.981362   -1.177989
H      0.738576   -2.323025   -1.025532
H     -0.429692   -3.040605    0.114388
H      1.259367   -2.816079    0.681193
H      5.072128    1.263551   -1.532551
H      4.996016   -0.491559   -1.268384
H     -1.772122    0.684766    1.716935
H     -1.484508    1.343547    0.055448
H     -1.525765   -0.910338   -0.863896
H     -1.944527   -1.653121    0.700444
H      0.558913   -0.147712   -1.430889
H      0.518392    1.037428   -0.106839
H     -3.881890   -0.279599    1.026227
H      0.290570   -0.849313    1.551473
