32

C     -2.142055    0.396287   -1.701331
C      4.916317   -0.878036    1.456927
C     -4.380037    0.774761    1.584509
C      1.495086   -0.315460   -0.806071
C      0.242181   -0.080235   -1.619760
C      1.821703    0.881779    0.060270
C     -1.301439   -0.990709    0.124636
C     -0.961335    0.177779   -0.778262
C      3.056655    0.592874    0.832571
C     -2.521133   -0.710076    0.929243
O      3.476198    1.492108    1.613563
O     -2.993883   -1.536880    1.746528
O      3.744783   -0.601953    0.725329
O     -3.221657    0.502636    0.823348
H     -2.745307   -0.538647   -1.760677
H     -1.792455    0.616640   -2.713075
H     -2.744534    1.253864   -1.335716
H      5.560496   -1.534413    0.814029
H      4.679983   -1.444631    2.384238
H      5.469092    0.074547    1.706294
H     -4.364612    1.856817    1.890825
H     -5.285136    0.696869    0.917276
H     -4.487901    0.151517    2.473333
H      2.338444   -0.385123   -1.552491
H      1.497512   -1.247576   -0.248007
H      0.030969   -0.905421   -2.305663
H      0.431620    0.846182   -2.216684
H      2.008042    1.767316   -0.580749
H      0.986609    1.132356    0.756029
H     -1.526850   -1.852398   -0.535776
H     -0.435728   -1.271135    0.764080
H     -0.851627    1.078362   -0.126235
