28

C     -2.917394    0.885198    1.145953
C     -2.692329   -0.528557   -0.831336
C      1.535141   -0.239696   -0.748400
C      2.290161    0.193143    0.492982
C     -0.676193    0.396004    0.219235
C     -2.060460   -0.187249    0.490069
C      0.133869   -0.694221   -0.426237
C      3.654599    0.619373    0.086673
N      0.109823   -1.861408    0.417969
O      4.577918   -0.229661   -0.132732
O      3.921178    1.964586   -0.054947
H     -3.830329    0.435097    1.572203
H     -2.315461    1.383395    1.920396
H     -3.191082    1.660609    0.405681
H     -2.214125    0.003328   -1.676311
H     -2.565181   -1.624154   -1.021799
H     -3.759824   -0.280433   -0.820953
H      1.449030    0.603791   -1.454187
H      2.110957   -1.062203   -1.211690
H      2.368105   -0.635430    1.224299
H      1.758919    1.048321    0.973845
H     -0.818219    1.229243   -0.471307
H     -0.233819    0.703710    1.200631
H     -2.008352   -1.030504    1.194866
H     -0.370127   -0.972551   -1.374482
H     -0.088102   -1.680655    1.405597
H      0.966582   -2.440745    0.295589
H      4.864715    2.341667    0.017327
