28

C     -2.757880   -1.233061    0.626154
C     -2.808725    0.843684   -0.738469
C      1.475448    0.056241    0.260964
C      2.518893   -0.579318   -0.631294
C     -0.856998    0.414815    0.786847
C     -2.300582    0.205327    0.545598
C      0.068346   -0.287621   -0.162309
C      3.865886   -0.194218   -0.141007
N     -0.153769    0.201897   -1.533638
O      4.621485   -1.083298    0.351308
O      4.348513    1.108919   -0.189809
H     -2.527470   -1.611357    1.656950
H     -3.863446   -1.211912    0.572931
H     -2.411564   -1.881871   -0.166339
H     -2.565668    0.279464   -1.637171
H     -2.402770    1.865850   -0.844784
H     -3.930884    0.943070   -0.649959
H      1.557759    1.165906    0.249536
H      1.603816   -0.289417    1.308855
H      2.411640   -0.348726   -1.684824
H      2.439780   -1.699588   -0.525060
H     -0.663768    1.514118    0.669819
H     -0.621533    0.204783    1.842888
H     -2.843837    0.733674    1.363445
H     -0.038563   -1.372474   -0.202732
H      0.050279    1.229274   -1.563381
H      0.449654   -0.254893   -2.226440
H      5.335960    1.280731   -0.387705
