38

C     -4.685885   -2.662844   -1.078851
C      4.075393   -2.372517    0.368628
C      1.476672    3.832759   -0.082928
C     -4.738428   -1.962713    0.251380
C      3.169735   -1.761366   -0.646814
C     -0.506963    0.582712   -0.135954
C     -0.003168    1.957005   -0.045920
C     -2.030801    0.656186    0.114300
C      2.455157    1.731774    0.632142
C      1.407323    2.275019   -0.241993
C     -2.626053   -0.690484    0.049177
C      2.558349    0.264372    0.613207
O     -1.986312   -1.732468   -0.186462
O      2.256476   -0.518363    1.538871
O     -3.985401   -0.793585    0.266293
O      3.045074   -0.357228   -0.555484
H     -4.880725   -3.762658   -0.914548
H     -5.496603   -2.247260   -1.733052
H     -3.720919   -2.470938   -1.547699
H      4.714849   -3.138197   -0.114325
H      3.444297   -2.878529    1.146612
H      4.760287   -1.630103    0.836189
H      2.501172    4.175119   -0.198147
H      0.746173    4.256474   -0.788533
H      1.144282    4.002137    0.962223
H     -5.810990   -1.655695    0.428303
H     -4.497132   -2.651745    1.095907
H      3.614575   -1.959517   -1.665975
H      2.195015   -2.292411   -0.648217
H     -0.451278    0.176486   -1.189578
H     -0.123182   -0.185560    0.509148
H     -0.372388    2.456329    0.911244
H     -0.581568    2.554135   -0.827319
H     -2.427620    1.246478   -0.735525
H     -2.246640    1.206254    1.040554
H      2.453773    2.144693    1.668932
H      3.465081    2.080706    0.241311
H      1.688369    2.125541   -1.322083
