97

C    -10.287632    0.797682    3.451072
C     -0.572090    0.400347    1.632597
C      3.238590    0.249226   -2.277609
C     -8.906927   -1.791487   -0.500799
C      1.140537   -3.171787    0.616815
C     -3.587621    0.395702    1.770317
C      7.756604   -1.558625    1.216676
C     -4.993438    0.889410   -1.745675
C     10.575424    1.111663   -1.555202
C     -9.101282    0.601556    2.924786
C     -8.926536   -0.254194    1.755565
C     -7.722741   -0.456723    1.216602
C      3.084473    0.620838    0.140992
C      4.270851    1.230755    0.029577
C     -0.120764   -1.251976   -0.058385
C     -2.247308   -0.151128   -0.250650
C      6.023830    0.861326    1.777634
C     -0.933138   -0.367713    0.462457
C      2.343051    0.063293   -1.037429
C     -7.553981   -1.316087    0.043493
C      1.244360   -1.635323    0.391847
C     -3.426697   -0.495631    0.574577
C      8.228507   -0.119735    1.175995
C     -5.596547    0.090475   -0.628678
C      9.225152    0.845175   -0.924789
C      4.914385    1.743769    1.253514
C      7.092567    0.748321    0.710816
C      2.165033   -1.398618   -0.781395
C     -4.688538   -0.916523   -0.086728
C      9.424068   -0.018558    0.298732
C     -6.958700   -0.435843   -1.096694
C      8.654292    2.136895   -0.449094
C     -7.845389    1.684161   -1.970367
N     -7.746097    1.370426   -3.232418
O      5.375658    3.061619    1.086237
O      3.393354   -1.977994   -0.469768
O     -4.350550   -1.795584   -1.164437
O      9.880325   -1.293920   -0.050590
O      9.161328    3.242869   -0.778251
O     -7.933358    2.997085   -1.542311
O      7.539324    2.052350    0.371872
O     -7.859791    0.645579   -1.104543
H    -10.417919    1.425203    4.308971
H    -11.145104    0.321594    3.016237
H      0.528897    0.309398    1.851178
H     -0.683667    1.514586    1.458430
H     -1.127144    0.173863    2.571754
H      3.244441    1.305788   -2.534870
H      4.214799   -0.234039   -2.157278
H      2.709420   -0.323722   -3.083027
H     -9.549304   -0.944098   -0.734116
H     -9.319933   -2.475715    0.271512
H     -8.661847   -2.426854   -1.386627
H      0.160810   -3.399305    1.086589
H      1.963551   -3.516007    1.267976
H      1.138539   -3.604912   -0.390068
H     -4.645695    0.839442    1.765905
H     -2.962297    1.292172    1.632724
H     -3.383071   -0.048160    2.742344
H      7.055781   -1.779748    0.363087
H      8.563881   -2.290739    1.152619
H      7.199929   -1.772509    2.173554
H     -5.439934    1.905840   -1.738061
H     -5.307005    0.426265   -2.749286
H     -3.911476    0.902069   -1.812467
H     10.449269    2.022983   -2.199967
H     11.325419    1.400006   -0.791665
H     10.849876    0.216828   -2.130912
H     -8.237592    1.080581    3.362232
H     -9.755478   -0.752004    1.285050
H     -6.881003    0.019192    1.673781
H      2.654637    0.520798    1.107687
H      4.704502    1.322284   -0.944078
H     -0.462671   -1.802252   -0.944338
H     -2.249457    0.971797   -0.514032
H     -2.197448   -0.641871   -1.230396
H      6.441812    1.263298    2.716335
H      5.608059   -0.134610    2.013391
H      1.433443    0.641593   -1.198360
H     -6.983901   -2.220896    0.205594
H      1.588705   -1.232918    1.321470
H     -3.049698   -1.507509    1.149585
H      8.480176    0.176179    2.227376
H     -5.913704    0.846907    0.180039
H      8.572564    0.338557   -1.666747
H      4.151981    1.825162    2.082619
H      6.623581    0.317031   -0.194700
H      1.688533   -1.927369   -1.651445
H     -5.184204   -1.627906    0.636945
H     10.278022    0.444464    0.876512
H     -6.914288   -0.974434   -2.039415
H     -7.736054    2.161724   -3.904369
H      5.070078    3.446292    0.237813
H      3.482747   -2.160062    0.492554
H     -4.069636   -1.194950   -1.883055
H     10.450918   -1.637640    0.698569
H     -7.817423    3.765258   -2.194150
