55

C      7.309885   -0.868495    1.140713
C      3.504992    1.561503   -0.960682
C      4.515646    2.495074   -0.862714
C      4.881381   -0.086351    0.023319
C     -4.462459    0.318184    2.338047
C      1.203826   -1.715644    1.187464
C      0.637957   -0.940305   -1.790354
C      3.659989    0.261569   -0.525181
C      1.463241   -0.485819    0.355327
C      0.220955   -0.370894   -0.472428
C      5.719366    2.112701   -0.310635
C      5.913938    0.820631    0.137079
C     -4.936279   -0.653078    1.298215
C     -5.618991    0.115273    0.198644
C     -5.118976   -0.358770   -1.153573
C     -3.620705   -0.245895   -1.137686
C      2.543176   -0.707719   -0.651667
C     -0.755140   -1.278784    0.217330
C     -3.063270   -1.116713   -0.064762
O     -3.457980    1.100273    1.784434
O      6.739729    3.031554   -0.204808
O     -6.978684   -0.125005    0.253186
O     -5.635732    0.434542   -2.163425
O     -3.091774   -0.563016   -2.402572
O      7.143324    0.463603    0.691250
O      1.977217   -0.596398   -1.911901
O     -0.153559   -1.694850    1.399821
O     -3.939795   -1.446240    0.886270
O     -1.897956   -0.570948    0.500727
H      8.381811   -1.009288    1.375505
H      7.018081   -1.593340    0.338225
H      6.755575   -1.065124    2.075605
H      2.548282    1.872878   -1.401588
H      4.335612    3.498940   -1.221214
H      5.010628   -1.103799    0.366819
H     -5.300626    0.945503    2.722707
H     -3.999855   -0.276726    3.155386
H      1.562680   -2.607974    0.636733
H      1.697050   -1.645321    2.198475
H      0.097621   -0.437988   -2.635784
H      0.458074   -2.016310   -1.815254
H      1.642241    0.402903    0.994072
H     -0.147820    0.671887   -0.553986
H     -5.703584   -1.297183    1.822833
H     -5.444662    1.197331    0.266844
H     -5.383969   -1.401955   -1.363242
H     -3.394428    0.840235   -0.907862
H      2.984323   -1.723866   -0.481533
H     -0.937605   -2.170480   -0.414903
H     -2.664272   -2.041846   -0.620694
H     -3.791924    1.979279    1.447301
H      6.647021    3.981185   -0.515480
H     -7.209310   -0.297752    1.206999
H     -6.360245    1.040620   -1.832281
H     -3.504021   -1.440567   -2.643122
