44

C     -2.471192   -3.731574    0.617672
C      5.344079   -0.960932   -0.064165
C     -2.592607   -2.779144    1.596960
C     -2.175849   -3.322720   -0.659906
C      4.537953   -0.106860    0.653036
C      4.839636   -1.667313   -1.139743
C     -2.422669   -1.414305    1.315581
C     -2.006784   -1.958562   -0.938318
C      3.194869    0.050010    0.293959
C      3.504068   -1.473279   -1.449043
C     -1.108046    3.457832    0.184551
C     -0.370984    2.365590   -0.388640
C     -1.958193    0.472242   -0.286798
C     -2.126813   -0.998638    0.037639
C      2.658470   -0.638490   -0.770595
C     -2.533491    3.665837   -0.014808
C      1.224973   -0.497085   -1.161591
C     -0.413210    0.762294    1.486850
C     -0.526375    0.927213   -0.022937
N      0.401422    0.151971   -0.652982
O     -3.255707    3.089064   -0.808452
O     -3.132510    4.649929    0.812719
O      0.877652   -1.280709   -2.316311
O     -1.038939    1.537828    2.203095
O      0.366146   -0.229398    1.971653
H     -2.607338   -4.796083    0.866191
H      6.396132   -1.114373    0.182369
H     -2.828235   -3.129089    2.605528
H     -2.072008   -4.024356   -1.447262
H      4.947243    0.446375    1.500141
H      5.482866   -2.355160   -1.716560
H     -2.533189   -0.714690    2.120333
H     -1.789567   -1.617499   -1.926600
H      2.596139    0.729685    0.862952
H      3.096876   -2.021685   -2.291414
H     -0.635471    4.427654   -0.263683
H     -0.827814    3.636470    1.281749
H      0.742734    2.655446   -0.369752
H     -0.545341    2.402223   -1.532923
H     -2.617420    1.026670    0.415214
H     -2.269071    0.668359   -1.309949
H     -4.031965    5.032007    0.552732
H      0.202150   -0.914542   -2.986989
H      0.477379   -0.408211    2.958501
