132

C     13.063465    1.601369    3.144723
C    -16.913846    2.029945    0.748031
C     13.282768    3.081812    3.017868
C    -15.545564    1.514340    0.310854
C     13.993384    3.413631    1.737433
C    -14.561688    2.630094    0.445999
C     13.216639    2.980312    0.526478
C    -13.202478    2.188103    0.016856
C     11.855375    3.653154    0.496255
C    -12.666396    1.046532    0.833007
C     11.080179    3.236103   -0.731930
C    -11.311467    0.654595    0.301601
C     10.867069    1.727851   -0.792614
C    -10.320639    1.756860    0.387546
C     10.094092    1.198650    0.389488
C     -8.975115    1.359840   -0.166469
C      9.956056   -0.280146    0.271790
C     -8.391232    0.201585    0.551887
C      9.256537   -0.802473   -0.922570
C     -8.138671    0.434883    2.024949
C      7.859449   -0.417868   -1.164161
C     -7.558869   -0.788636    2.683330
C      6.822271   -0.747288   -0.185423
C     -6.242985   -1.241943    2.119303
C      6.586025   -2.149728    0.182531
C     -5.186724   -0.190877    2.307211
C      6.247916   -3.168058   -0.781012
C     -3.858858   -0.593469    1.722810
C      5.101617   -3.247280   -1.658598
C     -3.922574   -0.795256    0.229261
C      3.720185   -3.342879   -1.135243
C     -4.273413    0.435673   -0.516725
C      3.113457   -2.211433   -0.411977
C     -3.290216    1.576458   -0.409120
C     -0.163015   -5.043606   -4.006053
C      2.972504   -0.972595   -1.288973
C     -1.949816    1.298157   -0.980414
C     -0.781520   -3.778524   -3.443799
C      1.155830    0.158596   -0.248012
C     -0.227840   -1.218582   -1.896480
C     -0.012884    0.073671   -1.138574
Br    -1.066070   -6.619905   -3.413182
O     -2.270790   -4.244203   -1.074858
O      0.259895   -4.697068   -1.070899
O      2.404577    0.075654   -0.715664
O     -1.237141    0.267891   -0.437691
O     -0.468665   -2.224620   -0.997497
P     -0.743989   -3.733033   -1.656683
H     13.382953    1.028114    2.276494
H     13.633636    1.210293    4.031731
H     11.969829    1.432561    3.315533
H    -16.824764    2.532984    1.730770
H    -17.278424    2.714966   -0.027899
H    -17.576537    1.129416    0.824160
H     12.313747    3.651346    3.098032
H     13.902895    3.410775    3.888725
H    -15.265992    0.608241    0.872054
H    -15.585347    1.221616   -0.758276
H     14.995687    2.915634    1.722688
H     14.125723    4.533867    1.706593
H    -14.832882    3.522889   -0.151189
H    -14.463394    2.972928    1.512458
H     13.150688    1.893727    0.495150
H     13.791959    3.278026   -0.381651
H    -12.521103    3.060238    0.186829
H    -13.164818    1.913668   -1.065118
H     11.968449    4.753131    0.453909
H     11.295983    3.316566    1.387614
H    -12.613477    1.398061    1.889360
H    -13.329992    0.158897    0.854876
H     11.666089    3.497158   -1.638514
H     10.095575    3.700055   -0.695028
H    -10.959942   -0.300338    0.740352
H    -11.481361    0.418756   -0.789513
H     11.863664    1.269647   -0.924676
H     10.324546    1.471522   -1.752776
H    -10.654297    2.630828   -0.236652
H    -10.176032    2.162319    1.400123
H     10.650069    1.407267    1.321338
H      9.141292    1.744292    0.421414
H     -8.323901    2.260438   -0.066916
H     -9.008765    1.137134   -1.253973
H      9.573681   -0.744847    1.234364
H     11.015395   -0.688392    0.229548
H     -7.441933   -0.075563    0.034488
H     -9.036772   -0.696828    0.469256
H      9.440555   -1.909137   -0.961657
H      9.831089   -0.460151   -1.828768
H     -9.081047    0.669452    2.540839
H     -7.463868    1.309243    2.092830
H      7.844775    0.686894   -1.349852
H      7.572946   -0.853968   -2.160088
H     -8.329293   -1.595440    2.650709
H     -7.474338   -0.536579    3.780989
H      5.881814   -0.226727   -0.353982
H      7.163389   -0.271879    0.805172
H     -6.390725   -1.435559    1.038381
H     -5.997793   -2.185738    2.664300
H      5.834172   -2.132486    1.016894
H      7.493073   -2.556050    0.792799
H     -5.045167   -0.007907    3.390260
H     -5.527692    0.758200    1.858697
H      6.242872   -4.186214   -0.204872
H      7.236894   -3.381874   -1.369744
H     -3.494883   -1.535831    2.166434
H     -3.106209    0.185476    1.924575
H      5.084597   -2.461598   -2.476740
H      5.243055   -4.197783   -2.297941
H     -4.662231   -1.583434   -0.050488
H     -2.947791   -1.175372   -0.093621
H      3.749687   -4.205378   -0.372026
H      3.030715   -3.765173   -1.929231
H     -5.295999    0.813908   -0.314390
H     -4.290218    0.153422   -1.611850
H      2.053169   -2.505775   -0.163711
H      3.610834   -2.015597    0.537397
H     -3.732178    2.410769   -1.021620
H     -3.193775    1.986805    0.607239
H     -0.165952   -5.030955   -5.112816
H      0.914810   -5.056597   -3.703243
H      2.588698   -1.342945   -2.264545
H      4.038831   -0.682238   -1.562775
H     -2.077731    1.021221   -2.080238
H     -1.382564    2.257511   -1.041713
H     -0.309054   -2.873517   -3.857246
H     -1.836899   -3.749006   -3.784889
H      0.995454   -0.597303    0.614174
H      1.113089    1.133108    0.365233
H      0.444231   -1.414294   -2.712820
H     -1.253928   -1.034800   -2.406399
H      0.016345    0.875107   -1.905085
H     -2.314711   -5.231487   -1.038134
