25

C      4.210156    0.235344   -0.246782
C      3.100560    0.406498    0.815629
C     -2.952636    0.623667   -0.425354
C     -1.391029   -0.775482    0.901757
C     -2.565679    0.096629    0.953852
Cl     5.200851    1.649340   -0.445090
O     -4.322808    0.785108   -0.539944
O     -2.689419    0.981232    1.977699
O      0.927771   -0.791776   -1.236997
O      0.607873   -2.528935    0.653582
O      2.564127   -0.885781    0.940925
O     -0.180402   -0.062182    1.078996
P      1.004450   -1.068522    0.535644
H      4.735705   -0.672062   -0.263755
H      3.518308    0.247276   -1.226887
H      3.636860    0.724702    1.729192
H      2.385588    1.120575    0.514526
H     -2.557132    0.037303   -1.247843
H     -2.510936    1.662745   -0.492547
H     -1.436488   -1.636051    1.572658
H     -1.288496   -1.173503   -0.152312
H     -3.460823   -0.662631    1.164295
H     -4.734561   -0.167138   -0.533603
H     -2.231467    1.827811    1.653423
H      0.429627    0.025830   -1.407147
