20

C      3.087290   -0.564624    0.079124
C     -2.500646   -0.542001    0.226334
C     -0.154596    0.287994    0.152784
C     -1.459839    0.173162   -0.611737
O     -2.751820    0.214787    1.360030
O     -1.224933   -0.614420   -1.752834
O      3.114279    2.086485   -0.427718
O      2.028908    1.359366    1.610449
O      0.814769    0.879480   -0.628749
S      2.258685    1.021585    0.176823
H      4.132869   -0.380850    0.406833
H      3.077885   -0.898627   -0.975106
H      2.538145   -1.243033    0.752528
H     -3.391628   -0.796263   -0.357005
H     -2.040546   -1.506300    0.562518
H     -0.279991    0.868230    1.079260
H      0.158095   -0.767510    0.375482
H     -1.792164    1.168728   -0.908258
H     -3.691897    0.542811    1.294937
H     -1.922863   -1.288999   -1.852553
