33

C      3.279495   -0.977426    1.007709
C      4.357190    1.196560    0.537937
C     -4.509888    1.035339   -0.739824
C     -2.630885   -0.578614   -0.508726
C      1.968010    0.865236   -0.098787
C     -4.038534   -0.280259   -0.187269
C      3.318104    0.214555    0.087829
N      3.739544   -0.291484   -1.217529
O     -5.393158    1.586640    0.178072
O     -4.862488   -1.298288   -0.699312
O     -0.381931   -1.998755    0.393421
O      0.095312   -0.302987   -1.571219
O     -1.739918    0.320771    0.157157
O      1.048606    0.266498    0.792866
P     -0.238922   -0.329918   -0.118547
H      2.565890   -1.744987    0.654807
H      3.137841   -0.693984    2.064618
H      4.293332   -1.463990    0.929418
H      4.692331    0.977500    1.592428
H      5.291344    1.099716   -0.076926
H      4.012657    2.242184    0.459567
H     -3.692356    1.685913   -1.024085
H     -5.095275    0.810868   -1.708140
H     -2.479400   -0.410595   -1.605923
H     -2.328380   -1.585282   -0.204752
H      2.074144    1.944068    0.244368
H      1.583072    0.858877   -1.090160
H     -4.228690   -0.327328    0.927858
H      4.262257    0.396883   -1.780114
H      2.956918   -0.749657   -1.711567
H     -6.320303    1.588528   -0.096103
H     -4.291356   -2.146211   -0.653233
H     -0.444561   -1.910370    1.388739
