120

C    -11.996679    3.306064   -3.429738
C     12.314140    3.697612    1.391242
C    -11.726065    2.428217   -2.244490
C     11.333335    4.577125    0.666880
C    -10.987335    1.145174   -2.610583
C      9.893397    4.132765    0.886193
C    -10.729442    0.349268   -1.390044
C      9.811095    2.732729    0.347550
C     -9.980511    0.919361   -0.271456
C      8.440769    2.161745    0.505432
C     -8.573257    1.340868   -0.373021
C      7.386085    2.939285   -0.201952
C     -8.178939    2.429836   -1.274259
C      6.054871    2.203893   -0.053539
C     -6.734356    2.767383   -1.241371
C      6.269023    0.789958   -0.608252
C     -6.070365    3.285391   -0.058298
C      6.679498    0.892601   -2.025832
C     -5.979424    2.549693    1.208717
C      7.077377   -0.363386   -2.715087
C     -5.329146    1.178953    1.077232
C      6.146498   -1.483889   -2.741480
C     -3.934414    1.370817    0.519460
C      4.801390   -1.276788   -3.370045
C     -3.206320    0.044314    0.356884
C      4.087787   -2.629030   -3.302813
C     -3.022108   -0.634513    1.676171
C      3.946469   -3.166563   -1.927683
C     -2.207190    0.048306    2.680343
C      3.092005   -2.352748   -0.978598
C     -1.645932   -7.789136    1.906938
C     -0.780302    0.342838    2.499991
C      3.089100   -2.994313    0.386777
C     -0.396757   -7.198085    1.327206
C      0.102315   -1.260980    1.051807
C      0.281355   -3.608285    1.873813
C      0.941149   -2.518123    0.979422
Br    -1.217340   -8.760050    3.508369
O     -0.777056   -5.519264    3.670910
O      1.497295   -6.760379    3.229861
O      0.069241   -0.755837    2.318555
O      2.263455   -2.398471    1.303039
O      0.995399   -4.752301    1.651685
P      0.355172   -6.048616    2.543020
H    -12.002684    2.734075   -4.388568
H    -11.182632    4.066607   -3.495682
H    -12.934995    3.877039   -3.262257
H     13.313098    4.164221    1.240968
H     12.408539    2.683134    0.942519
H     12.170644    3.678547    2.496516
H    -11.091717    2.974666   -1.522678
H    -12.704099    2.115224   -1.752768
H     11.555028    4.457594   -0.422125
H     11.425065    5.606634    1.030115
H    -11.777081    0.529152   -3.186969
H    -10.166967    1.264327   -3.288455
H      9.616765    4.098818    1.939029
H      9.234773    4.777169    0.255951
H    -10.290396   -0.636796   -1.750671
H    -11.744563    0.019161   -0.991432
H     10.495222    2.045408    0.910713
H     10.125080    2.782140   -0.735236
H    -10.016612    0.141378    0.571041
H    -10.631492    1.772073    0.143902
H      8.443382    1.063707    0.226301
H      8.131588    2.154309    1.598482
H     -7.996488    0.400650   -0.694483
H     -8.156564    1.531471    0.667620
H      7.548815    3.165699   -1.249520
H      7.201579    3.927661    0.361619
H     -8.809349    3.363807   -1.122808
H     -8.474384    2.127097   -2.325803
H      5.738049    2.207465    0.991430
H      5.269284    2.693929   -0.681867
H     -6.102902    1.935201   -1.701928
H     -6.614737    3.580814   -2.050078
H      5.214164    0.345480   -0.525761
H      6.870754    0.133467   -0.017017
H     -5.019577    3.590809   -0.365829
H     -6.505323    4.335074    0.188592
H      5.933099    1.474828   -2.636424
H      7.607651    1.546218   -2.076322
H     -6.791023    2.590922    1.920574
H     -5.143289    3.127059    1.805161
H      7.262942   -0.056560   -3.800300
H      8.112417   -0.631445   -2.373309
H     -5.916956    0.510048    0.414036
H     -5.358925    0.737381    2.088015
H      5.929535   -1.777010   -1.672864
H      6.621026   -2.365953   -3.234167
H     -4.012815    1.830784   -0.468022
H     -3.426460    2.068577    1.212017
H      4.971167   -1.073083   -4.460716
H      4.215077   -0.450830   -2.971935
H     -3.910700   -0.597460   -0.225438
H     -2.315918    0.216370   -0.224901
H      3.068710   -2.483855   -3.714823
H      4.628168   -3.359284   -3.908483
H     -2.753694   -1.680589    1.548221
H     -4.078245   -0.718172    2.130137
H      4.908565   -3.507121   -1.477570
H      3.374514   -4.143266   -2.042922
H     -2.777111    0.977779    3.045760
H     -2.274445   -0.594478    3.631252
H      2.084326   -2.322926   -1.417045
H      3.454933   -1.308575   -0.857266
H     -2.346856   -6.936957    2.082282
H     -2.141798   -8.416761    1.129416
H     -0.418760    0.860203    3.437065
H     -0.573529    1.095851    1.695259
H      4.116429   -3.031247    0.811146
H      2.828458   -4.076835    0.230437
H      0.354641   -7.994348    1.073212
H     -0.604458   -6.643170    0.369563
H     -0.870340   -1.399363    0.613738
H      0.622547   -0.522456    0.340443
H      0.117206   -3.286377    2.887972
H     -0.732501   -3.760827    1.397976
H      0.839357   -2.961883   -0.021437
H     -0.597497   -6.005833    4.542915
