39

C      2.694364    1.398591   -0.500752
C      3.528504   -0.861762   -0.250216
C     -1.986292    3.563820   -0.142743
C     -2.418969   -2.753396    0.157991
C     -2.643643    1.333283   -0.687543
C     -0.199884   -2.205649    1.343037
C     -2.393930   -0.107731   -0.899904
C      1.098711   -1.817960    0.742864
C     -0.226001    1.649713   -0.132960
C      2.419869    0.115310    0.194559
C     -1.648408    2.114688   -0.338440
C     -1.330010   -1.808762    0.461194
C      1.080859   -0.518761   -0.061031
C     -1.304729   -0.578137   -0.022685
C     -0.114464    0.267191    0.372336
H      2.487060    1.279244   -1.586575
H      2.344848    2.312999   -0.041072
H      3.834287    1.503697   -0.481017
H      3.356980   -1.196342   -1.282188
H      3.687197   -1.655957    0.475889
H      4.457039   -0.243457   -0.270667
H     -1.079288    4.198451   -0.157667
H     -2.699961    3.846436   -0.944717
H     -2.524271    3.707411    0.819605
H     -3.341846   -2.427170    0.688296
H     -2.157536   -3.770428    0.462239
H     -2.574756   -2.742176   -0.942762
H     -3.655165    1.695937   -0.830389
H     -0.275440   -1.686086    2.343602
H     -0.267352   -3.286102    1.585306
H     -2.052508   -0.219889   -1.969167
H     -3.310667   -0.717713   -0.803246
H      1.917687   -1.739099    1.486504
H      1.354945   -2.629794   -0.004315
H      0.140905    2.353036    0.681207
H      0.259768    1.853859   -1.109704
H      2.597439    0.212564    1.300049
H      1.021863   -0.731858   -1.154762
H     -0.077203    0.291998    1.499845
