48

C     -5.424999    0.829321   -0.776715
C     -4.260127    1.625738    1.190646
C     -0.402442   -3.164044   -0.411645
C     -2.470358   -2.354463    0.518093
C     -3.292333   -1.200414    0.955259
C     -1.997936    0.271878   -0.510488
C      4.595567   -1.064406    0.668254
C     -4.378931    0.725229    0.018452
C     -1.271777   -2.067013    0.041448
C     -3.351546   -0.282488   -0.274165
C     -0.916693   -0.629139    0.018287
C      3.495303   -0.133276    0.219423
C      3.820545    0.507398   -1.121098
C      2.814235    1.633764   -1.298587
C      1.651446    1.533635   -0.384919
C      1.265169    0.155632    0.033965
O      5.771073   -0.293740    0.779085
O      5.123981    0.932638   -1.211597
O      2.409448    1.695682   -2.652509
O      1.836913    2.372883    0.723734
O      0.229958   -0.378179   -0.728583
O      2.284158   -0.756096    0.069394
H     -5.550469    0.198028   -1.635511
H     -6.178794    1.567081   -0.563772
H     -5.239379    1.779233    1.700679
H     -3.911716    2.649771    0.911681
H     -3.584496    1.184746    1.979544
H     -1.036802   -3.882251   -0.993227
H     -0.000502   -3.764606    0.446220
H      0.394259   -2.841602   -1.101322
H     -2.840910   -3.346982    0.591678
H     -4.300621   -1.491676    1.292324
H     -2.707918   -0.654012    1.728248
H     -1.878729    0.439108   -1.623641
H     -1.945641    1.278654   -0.024944
H      4.728906   -1.931624    0.015313
H      4.326752   -1.401784    1.693882
H     -3.679967   -0.931366   -1.135285
H     -0.751962   -0.340113    1.094206
H      3.405022    0.657989    0.974410
H      3.614816   -0.219891   -1.953813
H      3.385045    2.572644   -1.131235
H      0.760091    1.970949   -0.925742
H      0.859185    0.234813    1.083987
H      6.011002   -0.150958    1.729200
H      5.243105    1.907168   -1.029395
H      1.933538    2.537241   -2.767763
H      1.415529    2.018901    1.539047
