28

C     -2.980079    0.596134   -1.070196
C      1.647383   -2.215055   -1.460320
C      1.974041    2.024537    1.579102
C      2.941491    1.183736    1.094632
C      0.660945    1.734122    1.253477
C      2.688326    0.092001    0.322522
C     -0.454333   -0.982268   -0.870244
C     -2.128238    0.572087    0.205587
C      0.391877    0.621110    0.455666
C     -0.763046    0.117906   -0.096230
C      1.404060   -0.212513   -0.015663
C     -2.709978   -0.551802    1.057204
N      0.872520   -1.179239   -0.819194
O     -3.475452   -1.380815    0.556575
O     -2.408607   -0.687571    2.392658
Na     0.000000    0.000000    0.000000
H     -3.604999    1.541237   -1.095383
H     -3.591746   -0.304885   -1.156652
H     -2.293885    0.619997   -1.964384
H      2.416274   -1.782141   -2.121198
H      1.012798   -2.954070   -1.963591
H      2.237152   -2.815930   -0.710770
H      2.188846    2.904661    2.200632
H      3.981589    1.378549    1.363830
H     -0.143000    2.334924    1.573187
H      3.496261   -0.572930   -0.038498
H     -1.141451   -1.575361   -1.421505
H     -2.218749    1.493581    0.748758
