28

C      3.159047   -0.604552   -0.437249
C     -1.693088   -2.705242   -0.160288
C     -1.943683    2.503636    0.009345
C     -2.988307    1.607932    0.011393
C     -0.631189    2.032788   -0.042786
C     -2.721665    0.245644   -0.038536
C      0.436543   -1.409814   -0.184367
C      2.169508    0.509804   -0.170557
C     -0.360894    0.671783   -0.092496
C      0.810310   -0.085192   -0.152835
C     -1.409759   -0.223563   -0.090153
C      2.487134    1.080351    1.187076
N     -0.919342   -1.476538   -0.145173
O      1.732573    0.742251    2.155344
O      3.554878    1.938699    1.378603
Na     0.000000    0.000000    0.000000
H      2.892326   -1.069586   -1.430325
H      3.115244   -1.345964    0.374537
H      4.193901   -0.187849   -0.595961
H     -1.348175   -3.429123   -0.918098
H     -1.655901   -3.143388    0.878164
H     -2.757831   -2.485702   -0.386549
H     -2.095839    3.573781    0.046268
H     -4.032915    1.956836    0.051130
H      0.214832    2.700325   -0.044762
H     -3.551402   -0.448625   -0.037293
H      1.117082   -2.255231   -0.231425
H      2.226611    1.306539   -0.933008
