36

C     -2.899102    2.450817    0.016185
C     -0.139023   -3.161318   -0.239663
C      4.948778    1.258658   -0.131029
C     -3.177893   -0.084177   -1.478362
C     -3.140339    1.137614    0.691318
C     -0.522109   -2.031343    0.704864
C      2.715892    1.144045    0.896426
C      3.152282   -0.214563   -1.037702
C      1.436501    0.658463    0.958683
C      1.846523   -0.707396   -0.971442
C      3.586644    0.713399   -0.100388
C     -2.538784   -0.041847   -0.077418
C      1.013576   -0.275393    0.007423
N     -0.328683   -0.721086    0.163706
O     -1.236015    0.156990   -0.221331
H     -2.132559    2.331096   -0.762009
H     -3.861808    2.868199   -0.355907
H     -2.504756    3.238775    0.723288
H      0.880713   -3.551932   -0.089915
H     -0.220503   -2.858625   -1.310545
H     -0.853115   -4.015959   -0.062272
H      5.696415    0.510709   -0.479414
H      4.991010    2.109407   -0.846607
H      5.208362    1.639836    0.856887
H     -4.240293    0.150864   -1.366922
H     -2.726526    0.693795   -2.130361
H     -3.069679   -1.102889   -1.866494
H     -4.221223    0.977577    0.859275
H     -2.591564    1.149707    1.675533
H      0.142031   -2.204156    1.618351
H     -1.541472   -2.229738    1.110511
H      3.037943    1.861854    1.632786
H      3.850062   -0.518341   -1.779701
H      0.761140    1.018812    1.751118
H      1.585589   -1.410740   -1.723568
H     -2.908015   -0.941112    0.417385
