31

C      3.863166    1.347851   -1.125067
C      3.505885   -1.643456   -1.292023
C      3.794275    0.448112    0.061216
C     -5.505536    0.715742   -0.022960
C     -5.158122   -0.299642    0.842705
C     -4.479482    1.432188   -0.603821
C     -3.834974   -0.582824    1.113020
C     -3.156113    1.145522   -0.330558
C      2.975706   -0.797629   -0.181595
C     -2.802783    0.129438    0.535836
C     -1.404263   -0.164761    0.817207
C      1.557712   -0.501878   -0.392693
N     -0.486138    0.517546    0.262679
O     -1.090309   -1.183852    1.685146
O      0.961685   -0.946900   -1.402544
O      0.827073    0.270750    0.502015
H      4.894961    1.787306   -1.228179
H      3.641114    0.873495   -2.086493
H      3.175382    2.226319   -1.010494
H      3.309233   -1.218393   -2.299548
H      2.959894   -2.613726   -1.264680
H      4.577583   -1.899914   -1.151218
H      3.280591    1.000660    0.891398
H      4.796417    0.206775    0.431242
H     -6.548887    0.937024   -0.234404
H     -5.929028   -0.897150    1.329139
H     -4.736397    2.245871   -1.297024
H     -3.547375   -1.379230    1.792357
H     -2.340998    1.710962   -0.788871
H      3.049325   -1.406533    0.759391
H     -0.149597   -1.459675    1.930047
