17

C     -1.072765   -1.000580    0.140784
C     -0.321214    0.309929    0.283165
C      1.119997    0.007284    0.461634
O     -0.611143    1.106496   -0.755585
O      1.475315   -0.733692    1.414053
O      2.109455    0.499121   -0.369600
N      0.002009   -0.001131    0.269825
H     -0.456365   -1.699660   -0.463707
H     -1.303503   -1.453906    1.125097
H     -2.026180   -0.831395   -0.382026
H     -0.676199    0.768260    1.232504
H     -1.229646    1.845784   -0.620683
H      0.047688    1.213313   -1.463233
H      2.944560   -0.030954   -0.602404
H     -0.512996   -0.832878   -0.089931
H     -0.476618    0.859412   -0.089462
H      0.987605   -0.025403   -0.090432
