21

C     -2.076291    0.535524    0.250119
C      0.135895   -0.803959   -1.237143
C     -0.852841   -0.032232    0.927763
C      1.865552   -1.687568    0.818725
C      0.543129    1.424838   -0.406452
C      0.356071   -0.002006    0.018343
N      1.489399   -0.459318    0.759698
O      1.199724   -2.693968    0.161652
O     -0.335481    2.014134   -1.066820
O      1.694221    2.074564   -0.059130
K      0.000000    0.000000    0.000000
H     -2.139821    1.636749    0.370228
H     -2.045727    0.272171   -0.834209
H     -2.963530    0.082244    0.699132
H      1.101859   -1.166728   -1.607438
H     -0.293888   -0.157497   -2.033580
H     -0.533058   -1.657745   -1.016413
H     -0.644025    0.551343    1.841061
H     -1.102696   -1.062364    1.254865
H      2.738558   -1.915496    1.411388
H      1.862951    3.047317   -0.251790
