17

C      1.771719    1.064860   -0.330461
C      0.669989    0.134802    0.124902
C      1.296077   -1.150813    0.517018
O      0.689450   -1.997747    1.232235
O      2.583257   -1.408488    0.074283
O     -2.028471    0.822131    1.028158
O     -2.736508   -1.221540   -0.740218
O     -2.361028    1.215390   -1.499771
O     -0.230721   -0.146354   -0.884613
P     -1.812516    0.187252   -0.518636
K      0.000000    0.000000    0.000000
H      1.349335    1.907216   -0.925103
H      2.335186    1.424838    0.548525
H      2.509023    0.527003   -0.978617
H      0.187078    0.545627    1.035167
H     -1.985489    0.112078    1.708561
H     -2.236381   -2.016257   -0.391429
