17

C     -1.611560   -0.351264    1.223314
C     -0.713840   -0.218841    0.009861
C     -1.554707    0.162993   -1.176323
O     -2.269417   -0.671452   -1.779632
O     -1.560216    1.465282   -1.638198
O      2.250600    0.706125   -1.520225
O      2.031299   -1.262240    0.408450
O      2.586672    1.252358    1.030297
O      0.167518    0.808944    0.257753
P      1.778521    0.366646    0.083886
Na     0.000000    0.000000    0.000000
H     -1.600250    0.557330    1.861484
H     -2.678791   -0.463570    0.887654
H     -1.323190   -1.261921    1.796779
H     -0.213182   -1.162528   -0.261732
H      1.740784    1.521176   -1.782023
H      2.969759   -1.449040    0.598654
