22

C      2.714578   -1.407345   -0.241515
C     -2.164217   -0.994304    0.494542
C     -2.759454    1.275944   -0.263258
C      1.910947   -0.139812   -0.354969
C      2.185884    0.728081    0.803738
C     -0.447636    0.509978   -0.592712
N     -1.755192    0.241946   -0.121334
O      2.763099    0.256073    1.813966
O      1.838792    2.078109    0.857329
O      0.534778   -0.456633   -0.472093
S     -0.034236    1.926537   -1.283121
Na     0.000000    0.000000    0.000000
H      3.303585   -1.448645    0.707037
H      3.473878   -1.492634   -1.061693
H      2.050274   -2.292183   -0.305770
H     -1.319609   -1.626594    0.821660
H     -2.842058   -1.600987   -0.147720
H     -2.703998   -0.712367    1.444019
H     -3.775519    0.864362   -0.392943
H     -2.697494    1.893103    0.672448
H     -2.476039    1.967683   -1.094037
H      2.199636    0.429689   -1.283573
