22

C      2.401276    1.607832    0.025002
C     -1.899781    0.968613    0.394365
C     -2.775924   -1.167421   -0.495141
C      1.336851    0.557243    0.262380
C      1.979763   -0.691684    0.730665
C     -0.458665   -0.499665   -1.020545
N     -1.685693   -0.228318   -0.381302
O      2.655283   -0.655379    1.779780
O      1.871186   -1.898354    0.065995
O      0.607421    0.406845   -0.915937
S     -0.184389   -1.839084   -1.902374
H      3.423619    1.152828    0.171501
H      2.337394    2.446982    0.719000
H      2.366855    2.002961   -1.015054
H     -1.306232    1.833936    0.043364
H     -2.968359    1.262701    0.305950
H     -1.725016    0.775930    1.470341
H     -3.758518   -0.642104   -0.630954
H     -2.581071   -1.858296   -1.320734
H     -2.787966   -1.748290    0.474276
H      0.639075    0.875519    1.070642
H      2.512891   -2.662797    0.168781
