21

C      2.862222    0.795533   -0.607032
C     -1.961717   -0.721695   -1.225585
C      2.389151   -0.586572   -0.258662
C     -1.500233   -0.289702    0.138412
C     -2.465044    0.631842    0.797782
O     -3.634759    0.227247    1.003479
O     -2.142443    1.916215    1.198579
O      1.325423    0.298153    2.021482
O      0.523874   -1.858556    1.240271
O     -0.255096    0.315774   -0.012310
S      0.949927   -0.495477    0.795183
H      3.242767    1.266259    0.315441
H      3.664462    0.690663   -1.373393
H      1.996718    1.356826   -1.003081
H     -1.738157    0.090938   -1.936955
H     -1.378869   -1.621884   -1.501353
H     -3.042050   -0.939515   -1.282557
H      3.216242   -1.143070    0.243683
H      2.136107   -1.168555   -1.161095
H     -1.425822   -1.196790    0.773194
H     -2.762703    2.432368    1.834518
