20

C      3.050140    0.281033   -0.318972
C     -1.953256   -1.575758    0.993634
C      2.288097    0.596029    0.927961
C     -1.264782   -0.525322    0.115637
C      0.206524   -0.564151    0.306550
Cl    -4.522721    1.056140   -0.944238
Cl    -2.260393    3.617411   -0.616769
O      0.830237   -1.626783    0.084935
O      0.885019    0.545241    0.720573
O     -1.733636    0.727642    0.413920
P     -2.449348    1.530222   -0.937800
H      2.404602    0.478462   -1.186020
H      3.365677   -0.785400   -0.315157
H      3.932574    0.970076   -0.354201
H     -2.821418   -1.999497    0.429103
H     -2.400650   -1.054331    1.872206
H     -1.253926   -2.350759    1.320073
H      2.542934    1.601861    1.324009
H      2.596778   -0.142699    1.717235
H     -1.442454   -0.779417   -0.959312
