21

C      2.664586   -0.558027    0.717904
C     -2.662579   -0.093238   -0.888854
C      2.446010   -0.445604   -0.788110
C     -1.422387    0.397939   -0.132070
C     -1.755498    0.491316    1.327339
O     -2.684955    1.237785    1.687805
O     -1.061156   -0.227298    2.287664
O      0.684267    0.590481   -2.510918
O      0.930865    1.734066   -0.395994
O     -0.372996   -0.469163   -0.354320
S      0.898050    0.383521   -1.043892
H      3.714056   -0.878438    0.902215
H      1.948679   -1.247489    1.169564
H      2.569209    0.455666    1.127594
H     -3.475234   -0.349782   -0.165039
H     -2.390088   -0.980888   -1.505337
H     -2.982395    0.688865   -1.591374
H      3.268115    0.197479   -1.162398
H      2.474663   -1.412882   -1.288177
H     -1.169954    1.413958   -0.456094
H     -1.621255   -0.595738    3.062493
