36

C      5.258079    0.834965   -0.420163
C      2.109009   -1.132705    2.292186
C      4.943316   -0.582870   -0.859533
C     -4.442176    1.156111   -0.616429
C     -3.181543    1.914549   -0.626044
C     -4.389629   -0.272474   -0.259440
C     -1.924907    1.135748   -0.741096
C     -3.081248   -0.950681   -0.459139
C      1.601960   -1.062958    0.867488
C     -2.021049   -0.069905    0.165002
C      2.634079   -0.459822   -0.017713
C     -0.783038   -0.821830    0.284285
O      2.429952    0.560629   -0.724040
O     -0.758909   -2.030414   -0.062741
O      3.879236   -1.042210   -0.072553
O      0.414388   -0.305441    0.763612
H      6.273585    0.924847   -0.003036
H      4.560383    1.190572    0.363361
H      5.114703    1.505814   -1.307018
H      2.778771   -0.258039    2.430280
H      1.305812   -1.040464    3.040349
H      2.732204   -2.029645    2.424154
H      5.836715   -1.208537   -0.636541
H      4.742379   -0.644932   -1.947444
H     -4.970541    1.247403   -1.610897
H     -5.151329    1.667027    0.101092
H     -3.090916    2.573578    0.287051
H     -3.208957    2.650866   -1.482165
H     -5.163073   -0.863429   -0.832978
H     -4.686932   -0.428815    0.818002
H     -1.776582    0.844921   -1.801557
H     -1.069710    1.799075   -0.460897
H     -2.870214   -1.070781   -1.544829
H     -3.079744   -1.920332    0.073505
H      1.454880   -2.115198    0.519336
H     -2.418955    0.305378    1.135787
