28

C      4.795562    0.922533    0.233125
C      0.350697   -1.166032    1.358419
C     -4.467656   -0.225653    0.261559
C     -2.729747    1.359316   -0.518803
C      3.774468    0.318863   -0.716713
C      0.109469   -0.293308    0.137942
C      1.380311   -0.247541   -0.615152
C     -2.185804   -1.075057   -0.260795
N     -3.116878   -0.000170   -0.172480
O      1.402600   -0.671104   -1.792357
O      2.527962    0.245752   -0.055510
O     -0.883892   -0.842537   -0.681746
S     -2.652501   -2.572946    0.132559
H      5.565826    1.469641   -0.356297
H      5.347940    0.117907    0.769027
H      4.320968    1.594566    0.981339
H      1.424774   -1.422119    1.484872
H     -0.211544   -2.112136    1.316800
H      0.080188   -0.577356    2.282184
H     -5.187163    0.340887   -0.365936
H     -4.708918   -1.308016    0.153539
H     -4.582643    0.034839    1.349856
H     -3.607361    1.937059   -0.878580
H     -2.371128    1.880829    0.399172
H     -1.954410    1.330557   -1.301457
H      3.646312    0.924815   -1.635922
H      4.138599   -0.685777   -1.043573
H     -0.206029    0.722188    0.460033
