27

C     -4.428357    0.786698    0.913422
C      3.787504   -0.315285    0.201553
C      0.584435   -1.930911   -0.246113
C     -3.520339    0.168325   -0.118495
C      3.037807    0.923489   -0.164542
C      0.219937   -0.455621   -0.255330
C     -1.233209   -0.378965   -0.556669
O     -1.600749   -0.844728   -1.670509
O      1.122544    2.604379    0.560923
O      2.268357    1.408319    2.316723
O     -2.171841    0.157003    0.289090
O      0.557369    0.064976    0.965807
S      1.683702    1.269247    0.929354
H     -5.468773    0.698406    0.514360
H     -4.134125    1.822041    1.115458
H     -4.404060    0.166042    1.836894
H      4.095731   -0.861955   -0.699270
H      3.245087   -0.944523    0.938473
H      4.748667   -0.025968    0.719860
H      0.358656   -2.298521    0.780395
H     -0.115256   -2.479895   -0.928212
H      1.631735   -2.105981   -0.545210
H     -3.874304   -0.835504   -0.390643
H     -3.579216    0.811539   -1.037596
H      3.752360    1.768825   -0.214777
H      2.661714    0.798485   -1.218878
H      0.774624    0.030082   -1.101732
