33

C      4.470586    1.028389   -1.965898
C      1.980650   -2.226158    1.526540
C      4.857792   -0.077478   -1.024549
C     -5.420813    0.561805   -0.420873
C     -4.480179    1.491619   -0.792723
C     -5.103494   -0.303942    0.590648
C     -3.256067    1.523525   -0.140913
C     -3.885831   -0.280778    1.247288
C     -1.614279    0.716343    1.552653
C      1.564888   -1.130497    0.570092
C     -2.938415    0.648705    0.879540
C     -0.672184   -0.167927    0.825596
C      2.720595   -0.341988    0.094782
O     -1.009621   -0.836022   -0.187836
O      2.754055    0.913652    0.329266
O      3.785371   -0.860508   -0.593822
O      0.648150   -0.298536    1.240702
H      3.932564    0.651400   -2.865450
H      5.431885    1.481035   -2.333751
H      3.926408    1.853037   -1.461461
H      2.110212   -1.801685    2.543238
H      2.967170   -2.676273    1.217091
H      1.253832   -3.038899    1.587839
H      5.358766    0.386236   -0.154923
H      5.584012   -0.733956   -1.542900
H     -6.388167    0.499986   -0.900675
H     -4.704244    2.185449   -1.586527
H     -5.823841   -1.059765    0.917599
H     -2.504412    2.245637   -0.417918
H     -3.649304   -0.963519    2.037361
H     -1.262953    1.781656    1.535084
H     -1.663396    0.432557    2.623044
H      1.030264   -1.603098   -0.277667
