27

C      1.741908   -2.536427   -1.121813
C      3.105529    0.251016    2.496113
C     -4.064906    1.449850    0.103342
C     -3.492195    2.065581   -0.995009
C     -3.407527    0.479079    0.807771
C     -2.238980    1.697681   -1.389085
C     -2.145662    0.118628    0.399271
C      1.744034   -1.061848   -0.778715
C     -1.558554    0.721843   -0.693895
C      2.701421   -0.730550    0.281762
C     -0.221968    0.333555   -1.119038
O      3.931382   -0.984906    0.216958
O      0.296027    0.894144   -2.116883
O      2.258478   -0.107509    1.420552
O      0.445858   -0.649163   -0.407424
H      2.722191   -2.964863   -0.845769
H      1.628242   -2.611288   -2.222677
H      0.898268   -3.072376   -0.633109
H      2.505228    0.292324    3.433994
H      3.949917   -0.464761    2.613035
H      3.520430    1.255991    2.252792
H     -5.070970    1.726209    0.441924
H     -4.078756    2.834238   -1.509289
H     -3.847935   -0.001438    1.660621
H     -1.773508    2.177809   -2.257979
H     -1.593270   -0.649454    0.935399
H      2.045318   -0.463366   -1.678274
