20

C      0.254379   -1.886252    0.599240
C      3.537111    0.686241   -0.437799
C     -3.536511    0.765202   -0.140421
C      0.058219   -0.388149    0.509575
C     -2.222840    0.501895    0.494126
C      1.178788    0.245334   -0.264091
Cl    -4.559224    1.629382    1.020180
O     -1.974928    0.878890    1.684786
O      0.940134    0.857320   -1.316790
O      2.454575    0.105965    0.257888
O     -1.183478   -0.161624   -0.146288
H     -0.176378   -2.321502    1.508514
H      1.340754   -2.111786    0.516558
H     -0.228876   -2.395852   -0.265596
H      4.209313   -0.117247   -0.777509
H      4.114719    1.315037    0.265107
H      3.207499    1.310346   -1.290897
H     -4.043033   -0.224057   -0.328582
H     -3.417625    1.280199   -1.093807
H      0.047401    0.030656    1.550106
