20

C     -0.066542   -1.420341   -1.809909
C     -2.902377    0.468959    1.571069
C      0.117056   -0.846790   -0.417480
C      2.762495    1.820591    0.214638
C     -1.195790   -0.763702    0.299177
C      2.026678    0.519174    0.208470
Cl     1.725883    3.012667    1.010556
Cl     4.221724    1.596308    1.205261
O     -1.937023   -1.774946    0.383665
O      2.487796   -0.518915    0.774405
O     -1.659402    0.400034    0.895460
O      0.802144    0.364998   -0.411768
H     -0.214337   -2.518733   -1.779904
H      0.803588   -1.206798   -2.432278
H     -0.987152   -0.992009   -2.299971
H     -3.462801   -0.468790    1.297798
H     -3.514653    1.329060    1.234888
H     -2.780520    0.484041    2.670229
H      0.730698   -1.584101    0.140341
H      3.042537    2.099294   -0.809549
