26

C     -3.686319    0.102211    0.859959
C      1.007505    1.724101   -0.666659
C      4.629578   -1.089589    0.689477
C     -3.601940   -0.136332   -0.632934
C     -2.328037   -0.925077   -0.899883
C      1.167477    0.382314    0.009721
C      3.294616   -0.487679    0.905836
C      0.065768   -0.488237   -0.493897
O      2.856924   -0.213312    2.049642
O      0.358436   -1.602709   -0.996771
O     -1.256276   -0.135232   -0.436995
O      2.427942   -0.182984   -0.152659
H     -4.279010   -0.721517    1.303034
H     -4.093743    1.108239    1.095608
H     -2.674792    0.061094    1.282351
H      0.129505    2.227351   -0.254447
H      0.810760    1.525818   -1.747501
H      1.928398    2.318317   -0.523939
H      4.649120   -2.160535    0.888713
H      5.345858   -0.601078    1.409777
H      4.955496   -0.812853   -0.335965
H     -4.496689   -0.691901   -1.006511
H     -3.555754    0.861095   -1.112844
H     -2.407396   -1.893376   -0.367766
H     -2.262474   -1.158787   -1.983161
H      1.015048    0.528740    1.117815
