26

C      4.157307    1.191909    0.189810
C     -1.400505   -2.376447   -0.330729
C     -4.271216    1.274754    0.694788
C      2.714954    0.959920   -0.249052
C      2.464541   -0.510397   -0.201260
C     -1.315950   -0.848981   -0.342838
C     -3.200882    0.603966   -0.084528
C      0.059224   -0.430341    0.093247
O     -3.155265    0.871407   -1.331898
O      0.227345    0.335371    1.076203
O      1.160654   -0.884104   -0.584097
O     -2.284859   -0.271576    0.484944
H      4.279248    0.975945    1.257908
H      4.772949    0.457780   -0.380067
H      4.397407    2.241684   -0.086218
H     -0.497140   -2.778256    0.194490
H     -1.408915   -2.787949   -1.345751
H     -2.280279   -2.729759    0.249027
H     -3.924944    2.245763    1.113375
H     -5.177610    1.447185    0.067460
H     -4.562263    0.604298    1.536994
H      2.662267    1.284949   -1.321746
H      2.088469    1.570195    0.398339
H      3.155586   -0.987065   -0.941253
H      2.750361   -0.945007    0.782894
H     -1.410487   -0.515244   -1.399790
