31

C      2.938055    1.644462   -0.155876
C      0.328752   -3.102962    0.379761
C      3.915426    0.528575   -0.391700
C     -4.307686    2.090696    0.225219
C     -3.349359    2.274040    1.196451
C     -4.276324    0.909355   -0.499436
C     -2.378760    1.333920    1.462885
C     -3.301065   -0.023495   -0.224220
C      0.925330   -1.732162    0.530061
C     -2.340984    0.154228    0.744997
C     -0.167095   -0.748017    0.313307
O     -0.018316    0.177865   -0.523291
O      4.502432   -1.971479    0.227233
O      3.226847   -0.708197    1.842253
O     -1.368504   -0.801570    1.003111
O      1.959809   -1.434744   -0.269233
S      3.383273   -0.997880    0.356316
H      3.523339    2.595919   -0.124552
H      2.374410    1.517094    0.793120
H      2.205821    1.728737   -0.981848
H      0.985545   -3.889381    0.830759
H      0.029309   -3.339042   -0.651434
H     -0.601597   -3.117241    0.988929
H      4.011409    0.335068   -1.493111
H      4.920448    0.826014   -0.007472
H     -5.044080    2.862575    0.060420
H     -3.325584    3.181138    1.795542
H     -5.026738    0.769753   -1.257430
H     -1.641618    1.512534    2.233885
H     -3.280933   -0.943122   -0.792167
H      1.198437   -1.632682    1.622155
