23

C     -2.690932   -0.327424   -0.848609
C     -1.534638   -0.945302   -0.418942
C     -2.951544    0.989344   -0.534913
C     -0.851322    1.028477    0.650541
C      0.642324   -1.002676    0.779374
C     -0.584181   -0.290045    0.339764
C     -2.013567    1.659378    0.222044
C      1.782203   -0.919592   -0.181887
C      2.196569    0.481600   -0.421253
O     -2.286311    2.987505    0.532942
O      2.870203   -1.567021    0.445235
O      1.427280    1.315338   -0.990626
O      3.439732    0.957129   -0.039102
Na     0.000000    0.000000    0.000000
H     -3.424704   -0.861191   -1.444066
H     -1.350697   -1.974850   -0.675279
H     -3.858228    1.489885   -0.866291
H     -0.141854    1.576311    1.239771
H      0.432691   -2.070365    1.019771
H      1.013315   -0.567757    1.754495
H      1.597153   -1.422248   -1.142772
H      2.561060   -2.464484    0.728902
H      3.725446    1.927987   -0.149100
