22

C     -2.848484   -0.081492    0.839327
C     -2.481306   -1.067060   -0.019697
C     -2.038602    0.985090    1.080739
C     -1.250687   -0.967408   -0.655561
C     -0.801507    1.069239    0.430960
C      0.889019    0.176167   -1.121509
C     -0.399030    0.088122   -0.445252
C      2.020131   -0.472514   -0.364247
C      2.249211    0.109115    0.959419
O      3.197730   -0.369755   -1.102663
O      3.190648    0.902210    1.140111
O      1.428809   -0.213362    2.015840
K      0.000000    0.000000    0.000000
H     -3.804531   -0.139477    1.346138
H     -3.106846   -1.920307   -0.225562
H     -2.362508    1.760738    1.776706
H     -0.951158   -1.761401   -1.349721
H     -0.164628    1.928614    0.634404
H      0.863066   -0.298635   -2.130506
H      1.183988    1.242591   -1.308606
H      1.822190   -1.571155   -0.272080
H      3.364498    0.600680   -1.228237
