54

C     -0.806540   -5.154727   -0.700797
C      3.779017    5.118390   -0.871750
C     -0.199263   -4.876006    0.508790
C     -0.431913   -4.507772   -1.867137
C      5.081314    4.707143   -0.659128
C      2.864028    4.129285   -1.165798
C     -6.808601    1.983198    0.735500
C     -7.140471    0.640849    0.542840
C      0.800108   -3.923719    0.511969
C      0.560494   -3.564676   -1.853696
C      5.455509    3.381249   -0.734670
C      3.216610    2.796248   -1.246508
C     -5.521626    2.314377    1.107942
C     -6.172959   -0.324390    0.729495
C      2.255703   -2.272691   -0.546040
C     -1.276165   -0.384038    2.045170
C      4.956191    0.991378   -1.109127
C      1.173694   -3.277559   -0.655154
C      4.514123    2.403702   -1.032592
C     -4.539291    1.361017    1.299509
C     -4.885979    0.033134    1.103964
C      1.733796   -0.892351   -0.257996
C     -0.421665   -0.443454    0.840675
C     -3.131690    1.373717    1.680005
C     -3.721018   -0.794886    1.354415
C      2.889075    0.031974   -0.168655
N     -2.619000    0.051835    1.716628
O     -0.933434   -0.126385   -0.264053
O     -2.487244    2.433332    1.935207
O     -3.616939   -2.039938    1.286774
O      2.987286    0.753051    0.853426
O      3.851135    0.135255   -1.146569
O      0.894460   -0.822178    0.848696
H     -1.611162   -5.903308   -0.776353
H      3.511441    6.162884   -0.806777
H     -0.511993   -5.397758    1.408744
H     -0.898168   -4.714216   -2.826260
H      5.805843    5.487590   -0.426645
H      1.841619    4.453878   -1.332533
H     -7.554305    2.755346    0.593806
H     -8.144957    0.371067    0.251293
H      1.303666   -3.678336    1.457495
H      0.891783   -3.028741   -2.739458
H      6.468418    3.063988   -0.569005
H      2.459025    2.072378   -1.482087
H     -5.285430    3.357346    1.251807
H     -6.435502   -1.353677    0.579591
H      2.771864   -2.237284   -1.527628
H      3.002928   -2.539278    0.225943
H     -0.892418    0.312400    2.820135
H     -1.347260   -1.387610    2.547636
H      5.655838    0.740804   -0.260619
H      5.534762    0.810954   -2.057763
H      1.135263   -0.582793   -1.152656
