37

C     -0.205337    1.092506   -1.857259
C     -1.194914    1.648344    2.097026
C      0.284743    1.534298   -0.529673
C     -4.183490   -1.245549   -0.791412
C     -3.849474    0.077053   -0.926674
C     -3.424618   -2.001919    0.058570
C     -2.782956    0.626022   -0.228110
C     -2.376116   -1.467343    0.746540
C      3.597146   -1.391031    0.806635
C      3.118572    0.035812   -0.965811
C      4.839810   -1.654497    0.277593
C      4.400188   -0.249563   -1.490302
C     -0.848477    0.385007    1.394175
C     -2.014422   -0.117900    0.625104
C      2.676839   -0.520407    0.191998
C      1.389091   -0.319309    0.784072
N      5.220987   -1.079730   -0.861423
N      0.320729    0.535466    0.507343
O      1.128925   -1.101189    1.824017
H     -0.503909    0.020591   -1.909067
H     -1.043017    1.769028   -2.209472
H      0.546273    1.202976   -2.695668
H     -0.313535    2.250610    2.399560
H     -1.713852    1.373742    3.052073
H     -1.929126    2.281399    1.543769
H     -0.407705    2.393141   -0.152497
H      1.233393    2.067717   -0.613909
H     -5.017573   -1.693235   -1.332100
H     -4.441987    0.692955   -1.598099
H     -3.671115   -3.052055    0.181505
H     -2.596936    1.672232   -0.380866
H     -1.798118   -2.085296    1.406835
H      3.308629   -1.870322    1.737242
H      2.565854    0.699804   -1.581168
H      5.544017   -2.322875    0.751292
H      4.731799    0.201566   -2.408252
H     -0.590317   -0.388050    2.146414
