110

C    -13.198504    2.116646    0.873667
C     14.212445    1.269023    0.395644
C      2.074635   -6.422138   -1.061218
C     -0.343398   -6.907577   -1.148212
C    -13.056552    1.025200   -0.114215
C     13.813458    1.781718   -0.964647
C    -11.794723    0.251924   -0.172905
C     12.658977    2.771176   -0.804616
C    -10.532718    0.932827   -0.544035
C     11.505557    2.012691   -0.154535
C    -10.125596    1.996353    0.402379
C     10.344766    2.957668    0.021265
C     -8.860308    2.701961    0.121552
C      9.200491    2.239750    0.668333
C     -7.549455    2.088515    0.086595
C      8.713839    1.074809   -0.146824
C     -6.942414    1.469953    1.305881
C      7.554865    0.404320    0.554255
C     -7.556637    0.255246    1.866638
C      6.434299    1.383903    0.749327
C     -7.565296   -0.995004    1.124281
C      5.988515    1.922622   -0.578507
C     -6.430958   -1.887044    1.012353
C      4.864477    2.918665   -0.454292
C     -5.107796   -1.433503    0.610041
C      3.617895    2.391424    0.164070
C     -4.321465   -0.740805    1.680454
C      3.049949    1.246636   -0.668359
C      0.570637   -4.899823   -2.240548
C     -1.410999   -0.366279   -0.738133
C     -0.006524   -2.146557    0.341488
C      0.822680   -6.363716   -1.916779
C     -0.195509   -0.674156    0.081201
C     -3.024024   -0.289194    1.058644
C      1.806192    0.743391   -0.037723
C      0.382135   -4.176962   -0.937675
O     -2.354078    0.543348    1.695776
O      1.459247    1.233189    1.064213
O      0.409364   -4.777955    0.177285
O     -2.605963   -0.771573   -0.145008
O      0.168642   -2.804797   -0.900474
O      0.994625   -0.233682   -0.583699
H    -12.550729    2.100200    1.743674
H    -14.248028    2.019859    1.326957
H    -13.178720    3.109362    0.349079
H     13.880163    0.234985    0.549151
H     15.324705    1.375815    0.484943
H     13.800199    1.923911    1.214209
H      2.834395   -7.061302   -1.563503
H      2.565024   -5.411463   -0.977075
H      1.912001   -6.829093   -0.066875
H     -0.777556   -7.759121   -1.720616
H     -1.159407   -6.175993   -0.992566
H     -0.034433   -7.238725   -0.113401
H    -13.273274    1.430474   -1.172273
H    -13.942743    0.311070    0.031827
H     14.623930    2.309599   -1.493645
H     13.517767    0.937930   -1.623093
H    -11.963108   -0.574749   -0.952980
H    -11.624155   -0.334707    0.781213
H     12.305352    3.085233   -1.813075
H     12.947328    3.621760   -0.184194
H     -9.771116    0.122414   -0.699725
H    -10.749124    1.389466   -1.584613
H     11.255312    1.194592   -0.872325
H     11.783623    1.557116    0.802838
H    -10.924506    2.829932    0.233272
H    -10.307830    1.688019    1.427084
H     10.613718    3.847637    0.610820
H     10.001209    3.336979   -0.979828
H     -8.967358    3.330163   -0.845748
H     -8.834369    3.563751    0.896801
H      8.391277    3.006748    0.810553
H      9.513039    1.846218    1.668919
H     -6.767379    2.845901   -0.269741
H     -7.502602    1.320960   -0.737989
H      9.555744    0.326033   -0.287441
H      8.451540    1.355077   -1.186063
H     -5.839314    1.454938    1.209616
H     -7.075967    2.281095    2.134579
H      7.890239    0.047803    1.572510
H      7.209833   -0.487844   -0.037018
H     -7.025192    0.112433    2.891696
H     -8.605456    0.528124    2.219401
H      5.610857    0.816707    1.259885
H      6.734313    2.168870    1.460490
H     -8.514539   -1.597018    1.412809
H     -7.835824   -0.764814   -0.004562
H      6.850589    2.517297   -0.995693
H      5.788294    1.122484   -1.310925
H     -6.339723   -2.538911    1.978904
H     -6.733877   -2.678313    0.205771
H      4.599291    3.211889   -1.512312
H      5.181299    3.842974    0.043846
H     -4.474607   -2.259528    0.145116
H     -5.139967   -0.684241   -0.251795
H      2.885932    3.225451    0.191777
H      3.749445    2.078608    1.226205
H     -4.774043   -0.036180    2.316465
H     -3.958545   -1.569658    2.432574
H      2.790509    1.585274   -1.669612
H      3.811905    0.441999   -0.773584
H     -0.339616   -4.748811   -2.839395
H      1.459816   -4.449935   -2.754442
H     -1.502406    0.738962   -0.942259
H     -1.345677   -0.833440   -1.765927
H      0.827652   -2.359903    1.018570
H     -0.915793   -2.596027    0.830952
H      0.975775   -6.896954   -2.893131
H     -0.309867   -0.151571    1.050812
