67

C     -4.607496    0.331813    2.917412
C     -4.010109   -1.633588    1.772881
C      3.451482    0.321864    2.148935
C     -5.702325   -0.300389    3.461316
C     -5.104913   -2.273289    2.313975
C      4.062858   -0.149574    3.287548
C      5.191212   -0.472960    0.795701
C     -1.925720    3.323825   -2.570717
C     -3.298654    3.307194   -0.631104
C      3.510103   -1.039358   -2.017244
C      0.026391   -1.701359   -3.286156
C     -3.733464   -0.316786    2.060017
C      3.998780    0.170513    0.894267
C     -5.971153   -1.621764    3.166945
C     -2.947903    3.878558   -1.831257
C      2.019426   -1.036010   -2.158690
C      5.280426   -0.801183    3.141862
C      1.400336   -1.734077   -3.195703
C      5.870763   -0.979107    1.911697
C     -1.250120    2.202555   -2.122020
C     -0.723056   -0.983275   -2.356946
C      3.889119    0.363326   -1.596620
C     -2.636501    2.188144   -0.166354
C     -1.615808    1.644866   -0.918213
C     -0.122483   -0.290471   -1.329020
C     -0.940330    0.449056   -0.374305
C     -1.944402   -0.406467    0.376811
C      3.278947    0.704291   -0.279216
C     -2.549419    0.397077    1.482401
C      1.268698   -0.329019   -1.245007
O     -7.084864   -2.276117    3.716064
O     -3.649628    5.012188   -2.258841
O      5.860645   -1.258043    4.301696
O      2.190699   -2.441437   -4.106085
O      7.080493   -1.623050    1.737730
O     -0.221557    1.668771   -2.895801
O     -2.102373   -0.959801   -2.461541
O      3.283948    1.216148   -2.550458
O     -1.177195   -1.428694    0.982985
O     -3.033829    1.655077    1.051921
O      1.904634    0.364495   -0.212900
H     -4.390491    1.379118    3.147808
H     -3.373788   -2.202477    1.112976
H      2.497873    0.837878    2.215271
H     -6.374233    0.227694    4.131236
H     -5.310346   -3.309022    2.079687
H      3.580502    0.002082    4.239099
H      5.647323   -0.611363   -0.155542
H     -1.683435    3.810175   -3.513562
H     -4.106276    3.760484   -0.065051
H      4.026561   -1.292660   -2.941904
H      3.723866   -1.790515   -1.212803
H     -0.434976   -2.251732   -4.100742
H      4.949955    0.587963   -1.631954
H     -0.251551    0.839658    0.433092
H     -2.749127   -0.806322   -0.235649
H      3.315314    1.829489   -0.182953
H     -1.839997    0.553870    2.332272
H     -6.921788   -2.743103    4.605000
H     -3.427479    5.467598   -3.135504
H      6.728838   -1.737127    4.319964
H      1.700343   -2.932863   -4.841799
H      7.571118   -1.985902    2.522250
H      0.027535    2.084456   -3.760507
H     -2.533325   -1.470068   -3.218175
H      3.469088    0.784872   -3.439082
H     -1.057164   -2.176128    0.338606
