32

C     -5.272320    0.865741    0.832870
C     -0.859711   -1.760016   -2.073676
C     -4.227436    0.898240   -0.284696
C      5.126452    0.911720    1.132639
C      4.277431    0.081563    1.834456
C      4.625413    1.526523    0.004644
C      2.977184   -0.130776    1.430886
C      3.338058    1.312101   -0.389080
C     -0.780912   -1.049783   -0.753249
C      2.468111    0.485485    0.296529
C      0.624231   -0.890848   -0.318235
N      1.135287    0.268815   -0.118573
O      1.395230   -2.019767   -0.125288
O     -2.332719    1.039842    1.533226
O     -3.053363   -1.185926    0.997037
O     -1.506740    0.114749   -0.691908
S     -2.746275    0.167222    0.371463
H     -4.831685    1.344954    1.725469
H     -6.162379    1.474038    0.544266
H     -5.537833   -0.168307    1.099667
H      0.077345   -2.328906   -2.304611
H     -0.953691   -1.001787   -2.886060
H     -1.683548   -2.472668   -2.157901
H     -3.998554    1.982917   -0.436304
H     -4.585785    0.398974   -1.185609
H      6.150942    1.074898    1.456381
H      4.688057   -0.401082    2.729280
H      5.247674    2.191089   -0.588093
H      2.331253   -0.791138    2.005009
H      2.915518    1.790524   -1.284427
H     -1.249309   -1.740522    0.000618
H      2.404068   -1.987868   -0.243309
