32

C      3.992068   -1.637479    0.993997
C      0.196248    0.700186   -2.930769
C      3.772084   -0.248191    1.530282
C     -3.169963   -1.730229    1.110127
C     -3.157188   -1.648283   -0.272878
C     -2.810720   -0.648440    1.885370
C     -2.776357   -0.458575   -0.843099
C     -2.440380    0.510147    1.277244
C      0.017482    0.916072   -1.431969
C     -2.409296    0.648299   -0.100797
C     -0.913793    2.058422   -1.271722
C      1.911921    0.365416    0.037377
N     -2.014856    1.879390   -0.651548
O     -0.598919    3.307641   -1.786403
O      1.299043   -0.669413    0.395535
O      3.152674    0.602532    0.588964
O      1.298025    1.195769   -0.886741
H      3.048698   -2.236822    1.091013
H      4.741252   -2.126427    1.646933
H      4.370963   -1.647992   -0.038250
H      0.970358    1.428677   -3.309905
H     -0.734145    0.805603   -3.489961
H      0.618238   -0.317470   -3.140641
H      4.750770    0.199610    1.801670
H      3.195673   -0.345275    2.472587
H     -3.463705   -2.648731    1.579058
H     -3.440296   -2.500344   -0.899153
H     -2.835761   -0.759048    2.972578
H     -2.762748   -0.383045   -1.936699
H     -2.159724    1.355410    1.878319
H     -0.357952   -0.012394   -1.010211
H     -1.289696    4.044985   -1.727158
