20

C     -2.341157    0.233249    0.864667
C     -0.588818   -1.149534   -0.884537
C     -0.859313    0.350060    1.024369
C      2.065507   -0.582826    0.553118
C      2.171603    1.179686   -0.744755
C     -0.202570    0.211676   -0.354235
C      1.283592    0.276624   -0.195755
N      3.354614   -0.178109    0.431072
O      3.381046    0.866391   -0.343146
H     -2.805513    0.005977    1.855189
H     -2.812871    1.195062    0.535043
H     -2.550339   -0.531982    0.110129
H     -0.971956   -1.816179   -0.072961
H      0.280589   -1.624200   -1.346910
H     -1.439766   -0.997473   -1.585048
H     -0.574440    1.346240    1.442215
H     -0.471663   -0.399423    1.725616
H      1.680357   -1.427436    1.128551
H      1.919460    2.000383   -1.391062
H     -0.518362    1.041815   -1.016151
