56

C      2.022351    1.281680    0.533232
C      2.729596    0.388713   -1.556286
C     -0.694246    2.661950   -0.934145
C     -1.392278    1.955468    1.193715
C      2.993639    2.245961    0.476579
C      3.704242    1.361618   -1.605952
C     -0.445152    3.916995   -0.425820
C     -1.137817    3.236412    1.712321
C     -1.333216   -1.462207    2.485632
C     -0.786972   -2.464036   -2.846934
C      0.961212   -1.864805    3.094504
C     -2.588063   -3.837346   -2.058890
C      1.889286    0.368116   -0.463087
C     -1.177910    1.652821   -0.115666
C      3.842368    2.285475   -0.603974
C     -0.659497    4.230855    0.899282
C     -0.375091   -1.838409    3.401403
C     -1.606541   -3.579810   -2.960864
C     -0.915844   -1.097340    1.206023
C     -0.993638   -1.605361   -1.778227
C      1.345932   -1.491080    1.795355
C     -2.767976   -2.949217   -0.993125
C      0.831290   -0.706164   -0.481191
C     -1.457023    0.363375   -0.677737
C      0.412393   -1.111826    0.868814
C     -1.984984   -1.845224   -0.847644
C     -0.302490   -0.342743   -1.374859
C     -1.952355   -0.735600    0.184673
O      4.849969    3.264404   -0.690218
O     -0.396195    5.519274    1.389117
O     -0.811328   -2.198934    4.675137
O     -1.400872   -4.450538   -4.040008
O      2.713563   -1.556914    1.583165
O     -3.779660   -3.258038   -0.105184
H      1.358337    1.245405    1.389907
H      2.636539   -0.330511   -2.355598
H     -0.507358    2.466631   -1.990481
H     -1.773053    1.258358    1.922057
H      3.114798    2.988984    1.269026
H      4.382336    1.402346   -2.457185
H     -0.060974    4.724675   -1.068148
H     -1.315354    3.459769    2.763569
H     -2.389535   -1.434172    2.703682
H     -0.025179   -2.311589   -3.592644
H      1.666918   -2.164106    3.838531
H     -3.203036   -4.713597   -2.181972
H      1.373867   -1.614635   -0.895344
H     -2.222706    0.444466   -1.538434
H      0.030996    0.233729   -2.252593
H     -2.933266   -0.583643    0.628187
H      4.702137    4.159410   -1.126262
H     -1.165950    6.199643    1.354460
H     -0.166583   -2.485566    5.397801
H     -1.981955   -5.268201   -4.146359
H      3.116120   -1.348907    0.706462
H     -3.973790   -2.666014    0.692198
