36

C     -4.173834   -1.062058   -0.287627
C     -4.047171    0.366204    0.178757
C      3.521176   -2.289084    0.727042
C      4.481655   -1.294219    0.712216
C      2.220767   -2.003784    0.287447
C     -0.174611    1.580809   -1.681557
C     -2.675124    0.638873    0.769609
C     -1.621101    1.341262   -1.280918
C      2.861089    0.222114   -0.163586
C      5.141444    1.015986    0.245329
C     -0.333374    0.220289    0.418307
C      4.160541   -0.020677    0.264176
C      1.887105   -0.742645   -0.160626
C      0.530592   -0.454574   -0.616708
N      5.957888    1.875010    0.209123
N      0.476298    0.296591   -1.852874
N     -1.631538    0.404362   -0.202182
H     -5.048524   -1.543864    0.203583
H     -3.283082   -1.670683   -0.056899
H     -4.351429   -1.150386   -1.377903
H     -4.267936    1.041256   -0.672177
H     -4.801841    0.567268    0.958147
H      3.792799   -3.276728    1.081753
H      5.492059   -1.514314    1.053881
H      1.477183   -2.799926    0.306379
H      0.277228    2.200964   -0.891937
H     -0.100288    2.167402   -2.618439
H     -2.649295    1.716861    1.032729
H     -2.530570    0.065749    1.683450
H     -2.041249    2.333890   -1.007267
H     -2.142276    0.966221   -2.194887
H      2.586365    1.203728   -0.516912
H      0.095389    1.137381    0.835647
H     -0.512818   -0.483400    1.282550
H      0.016110   -1.430535   -0.845001
H      1.410375    0.374657   -2.304545
