72

C      9.097811    0.414454   -2.990909
C     -4.988830   -3.022032    2.614113
C      8.355200    0.044184   -1.702127
C     -3.861505   -2.833977    1.612796
C      6.893518   -0.142058   -1.973694
C      6.156335   -0.530333   -0.754487
C      6.248389    0.494849    0.316042
C      5.743573    1.832223   -0.042505
C      4.376013    2.039398   -0.507547
C      3.224486    1.700231    0.360297
C      3.014466    0.298704    0.765981
C      1.761827    0.210028    1.646557
C      0.537165    0.659533    0.921448
C     -0.706101    0.532328    1.823185
C     -0.936355   -0.878014    2.261724
C     -2.156484   -1.015533    3.140399
C     -8.958807    0.675068   -1.920662
C     -8.689595    0.233265   -0.644745
C     -3.420601   -0.582232    2.461324
C     -7.903950    0.713594   -2.787546
C     -7.436831   -0.149263   -0.254503
C     -3.719665   -1.378808    1.217566
C     -6.590510    0.329601   -2.434970
C     -6.353973   -0.101243   -1.172416
C     -5.556254    0.413226   -3.439528
C     -5.052271   -0.520439   -0.693495
O     -4.361985    0.141502   -3.380254
O     -5.954277    0.885461   -4.722981
O     -3.968062   -0.570740   -1.283921
O     -4.934092   -0.956204    0.666480
H     10.176841    0.342881   -2.738288
H      8.775877    1.436783   -3.252062
H      8.786970   -0.333479   -3.752127
H     -5.850118   -2.405220    2.298331
H     -5.281272   -4.094000    2.563327
H     -4.656827   -2.781782    3.649047
H      8.767895   -0.899902   -1.304984
H      8.603040    0.862934   -1.004626
H     -4.115981   -3.457130    0.723341
H     -2.951452   -3.255266    2.060763
H      6.782135   -0.937060   -2.772137
H      6.447685    0.771008   -2.462060
H      6.665130   -1.457946   -0.343526
H      5.115273   -0.878686   -0.945833
H      5.965439    0.083331    1.296098
H      7.387205    0.644222    0.470305
H      5.863884    2.468601    0.906475
H      6.463920    2.313430   -0.766629
H      4.261422    3.163555   -0.730352
H      4.192568    1.611524   -1.544935
H      3.324455    2.320181    1.296071
H      2.297595    2.052525   -0.177121
H      3.802821   -0.149582    1.400333
H      2.799135   -0.383164   -0.095543
H      1.966970    0.933112    2.485692
H      1.703100   -0.817627    2.023321
H      0.578305    1.724716    0.610711
H      0.404419    0.039730    0.020561
H     -0.636291    1.247398    2.650570
H     -1.557765    0.874586    1.172799
H     -0.923914   -1.549261    1.405134
H     -0.066906   -1.167172    2.923645
H     -2.004321   -0.351081    4.015784
H     -2.249212   -2.041922    3.541907
H     -9.953679    0.967241   -2.191915
H     -9.542342    0.205209    0.045712
H     -4.254614   -0.775074    3.172089
H     -3.430029    0.499177    2.259997
H     -8.079161    1.055717   -3.798956
H     -7.242664   -0.490878    0.741946
H     -2.924493   -1.317982    0.461818
H     -5.269678    1.074626   -5.416307
