28

C     -4.358156    0.224752   -1.140300
C     -3.084398   -0.113890    1.290880
C     -3.058269   -0.106148   -1.192505
C      3.618688    1.841070   -0.027015
C      2.374487    2.399181   -0.036278
C      3.743430    0.477555    0.003832
C      1.286139    1.592154   -0.014745
C     -2.327275   -0.519068    0.043748
C      2.621884   -0.377089    0.026548
C      1.387290    0.183748    0.017195
C      2.870876   -1.793397    0.058246
C      0.147364   -0.578027    0.038130
O      4.112157   -2.168172    0.063326
O      1.945472   -2.780587    0.083431
O     -0.032266   -1.797097    0.066550
O     -1.084595    0.144593    0.025053
H     -4.853349    0.516874   -2.046948
H     -4.924295    0.210252   -0.232587
H     -3.767852   -0.908496    1.642329
H     -3.598332    0.871931    1.169787
H     -2.357351    0.053034    2.138098
H     -2.522161   -0.080311   -2.119613
H      4.513896    2.480876   -0.044179
H      2.241859    3.489993   -0.060865
H      4.752235    0.077696    0.010138
H      0.314379    2.037111   -0.022188
H     -2.176021   -1.619834    0.068538
H      2.214164   -3.758702    0.191394
