62

C      6.860058    0.702581    0.502872
C     -6.216193    1.081531   -2.107353
C     -5.702278    1.421619    2.865965
C      6.259400    0.692601    1.872566
C     -4.946218    1.790420   -1.742336
C      5.069629    1.496137    2.126069
C      3.772289    1.320103    1.503179
C      3.445168    1.414546    0.103212
C      3.939220    0.593819   -0.975202
C      3.849838   -0.863107   -1.028067
C      2.508961   -1.516977   -1.003617
C      1.648814   -1.356910    0.174828
C      0.339719   -2.148746    0.000497
C     -0.448970   -1.688981   -1.195925
C     -1.738150   -2.480419   -1.341213
C     -2.645744   -2.358003   -0.168531
C     -3.077721   -0.940453    0.110911
C     -3.813975   -0.313943   -1.023912
C     -4.772043    1.568028    1.705925
C     -4.194309    1.096699   -0.631806
O     -3.707262    2.237750    1.822396
O     -5.051106    0.983799    0.499826
H      6.596587   -0.165269   -0.132401
H      6.700379    1.690857   -0.016800
H      7.995669    0.648894    0.543566
H     -6.989482    1.833511   -2.358003
H     -6.592419    0.544578   -1.202180
H     -6.124132    0.413584   -2.980995
H     -6.058942    2.392883    3.208682
H     -5.098791    0.964967    3.681175
H     -6.493766    0.707074    2.591509
H      7.078083    1.118152    2.547003
H      6.198726   -0.359761    2.283498
H     -4.307999    1.930340   -2.626040
H     -5.207863    2.801014   -1.371046
H      5.437694    2.593112    2.068863
H      4.888804    1.447480    3.266055
H      3.227257    0.409467    1.991361
H      3.112894    2.124827    2.027886
H      2.330143    1.595800   -0.017952
H      3.780787    2.516650   -0.189130
H      3.286134    0.894466   -1.923222
H      4.914408    0.975585   -1.406499
H      4.585877   -1.403635   -0.370235
H      4.258541   -1.165361   -2.057963
H      2.594973   -2.584510   -1.351348
H      1.949421   -1.038494   -1.878911
H      1.301213   -0.335965    0.389179
H      2.074782   -1.731603    1.127974
H     -0.290653   -1.935509    0.907845
H      0.519941   -3.221878   -0.080516
H     -0.708987   -0.615450   -1.148410
H      0.132904   -1.818762   -2.155305
H     -1.409508   -3.561046   -1.379613
H     -2.217543   -2.291463   -2.309664
H     -3.527842   -3.030247   -0.311669
H     -2.136330   -2.742383    0.732617
H     -3.766740   -0.973290    0.986907
H     -2.227476   -0.307636    0.391556
H     -3.117265   -0.212831   -1.895643
H     -4.741190   -0.833872   -1.302843
H     -3.327409    1.707163   -0.349572
