15

C     -1.736892   -1.469804   -0.506612
C     -0.266862    1.702950    0.166302
C     -1.152458   -0.556907    0.252797
C     -0.003747    0.263201   -0.225557
C      2.321293   -0.548489   -0.343592
Cl     3.794784   -1.043185    0.483181
O      2.262292   -0.555689   -1.611849
O      1.213337   -0.147646    0.354653
H     -1.351183   -1.610771   -1.509567
H     -2.554704   -2.024905   -0.107896
H      0.030004    2.404787   -0.631557
H     -1.355512    1.846365    0.324262
H      0.236566    1.882154    1.130049
H     -1.486380   -0.362889    1.266730
H      0.049461    0.220826   -1.314422
