73

C     -9.180303    2.477506    0.825622
C      3.884545    1.990252    0.149123
C    -10.092095    1.329907    0.551841
C     -9.607855   -0.027194    0.893281
C     -8.432949   -0.496217    0.124932
C     -7.213740    0.337977    0.277112
C     -6.115761   -0.382417   -0.542254
C     -4.827533    0.392689   -0.450402
C     -3.718876   -0.246004   -1.242355
C     -3.375929   -1.640256   -0.795285
C     -2.942887   -1.753699    0.597951
C     -1.805893   -1.049692    1.156352
C     -0.429958   -1.208423    0.683296
C     -0.216365   -0.760248   -0.714984
C      1.223982   -0.960001   -1.177599
C      2.122051   -0.166227   -0.290360
C      3.583826   -0.293358   -0.703826
C      9.097420   -0.339586    1.396145
C      8.496998    0.475107   -0.730574
C     10.750523    0.060010   -0.223969
C      4.382941    0.552498    0.268647
C      8.113148    0.070610    0.527370
C     10.439668   -0.358518    1.052025
C      9.812088    0.482650   -1.141481
C      6.706795    0.080856    0.914530
N     11.442244   -0.785774    1.963688
N     10.153019    0.909291   -2.449240
O      6.351306   -0.283020    2.048391
O     11.150655   -1.201644    3.226943
O     12.628265   -0.778238    1.590517
O     11.442059    0.929440   -2.888049
O      9.253878    1.277647   -3.224678
O      5.756145    0.496947    0.019520
H     -8.845001    3.004184   -0.098588
H     -9.836337    3.271458    1.329503
H     -8.404160    2.285104    1.569571
H      3.167607    2.239196    0.966262
H      3.437390    2.172232   -0.851767
H      4.772192    2.647720    0.228891
H    -11.082198    1.472868    1.100280
H    -10.366526    1.379190   -0.555209
H    -10.443038   -0.795369    0.753840
H     -9.396266   -0.090268    2.016512
H     -8.183712   -1.575329    0.359947
H     -8.687450   -0.553961   -0.986437
H     -7.269140    1.346254   -0.187067
H     -6.893532    0.438983    1.316649
H     -6.466731   -0.439846   -1.588104
H     -6.067396   -1.393006   -0.103332
H     -4.954889    1.441201   -0.774784
H     -4.472610    0.467763    0.615013
H     -4.012919   -0.251067   -2.335831
H     -2.813966    0.386869   -1.123871
H     -4.405161   -2.181832   -0.828096
H     -2.834595   -2.180384   -1.574850
H     -2.867741   -2.866781    0.880451
H     -3.854366   -1.456956    1.234222
H     -1.817893   -1.262550    2.288584
H     -2.048182    0.077411    1.181684
H      0.217230   -0.514562    1.322485
H      0.025641   -2.205414    0.902527
H     -0.306994    0.381299   -0.673216
H     -0.926999   -1.073643   -1.468877
H      1.420370   -2.054557   -1.052598
H      1.290713   -0.704291   -2.237053
H      1.865473    0.905864   -0.346135
H      2.096154   -0.575177    0.746891
H      3.940975   -1.336837   -0.656989
H      3.738034    0.039456   -1.755961
H      8.830100   -0.663923    2.392807
H      7.715870    0.801514   -1.422487
H     11.790102    0.064871   -0.545723
H      4.118537    0.219446    1.288185
