47

C     -5.568415    0.843878   -3.531556
C     -4.856503    0.077801   -2.472135
C      8.426699   -0.741663    0.004109
C     -5.816019   -0.874942    2.994284
C      7.528854   -1.783710    0.149814
C      7.914904    0.532687   -0.101755
C     -4.441289   -1.002177    3.011750
C     -6.395158   -0.479192    1.806418
C     -4.127162    0.676659   -1.541361
C      6.154870   -1.579454    0.190918
C      6.555198    0.744685   -0.062077
C     -3.683249   -0.738243    1.868628
C     -5.645858   -0.214088    0.662027
C      3.771082    1.194491    0.637289
C      3.250637   -0.865827   -0.347819
C      2.420271    1.498751    0.678666
C      1.879875   -0.561585   -0.307922
C      5.642828   -0.303891    0.084946
C      4.216624   -0.003728    0.118940
C     -4.282143   -0.343543    0.690469
C      1.462050    0.625070    0.207131
C     -3.421715   -0.077367   -0.492256
C     -1.005101    0.231218   -0.164848
N      0.103153    0.971340    0.268019
O     -0.865628   -0.879445   -0.678812
O     -2.320942    0.694356   -0.045123
H     -5.425639    1.924358   -3.307361
H     -6.644229    0.573635   -3.583114
H     -5.042120    0.633830   -4.486016
H     -4.937267   -1.020257   -2.459976
H      9.497043   -0.914126   -0.026608
H     -6.443272   -1.070656    3.860918
H      7.923630   -2.770047    0.231763
H      8.622071    1.357053   -0.216869
H     -3.985464   -1.313269    3.945698
H     -7.479421   -0.372513    1.770735
H     -4.051694    1.755034   -1.558527
H      5.449640   -2.391216    0.304696
H      6.144889    1.740548   -0.144359
H     -2.598566   -0.842105    1.894019
H     -6.111517    0.097734   -0.271203
H      4.470195    1.922165    1.022796
H      3.608746   -1.809955   -0.755822
H      2.089476    2.444860    1.089478
H      1.257604   -1.336022   -0.708868
H     -3.087819   -1.055316   -0.928816
H     -0.154152    1.926873    0.699690
