15

C     -2.227676   -0.649092   -0.262389
C      0.240894    1.633128    0.334007
C     -1.121524   -0.116742   -0.763139
C      0.063915    0.133612    0.063347
C      2.094149   -1.210046    0.147562
Cl     3.584826   -1.728660   -0.588368
O      1.713774   -1.634214    1.284054
O      1.265759   -0.314596   -0.478689
H     -2.291366   -0.919076    0.785472
H     -3.103350   -0.834464   -0.871101
H      0.304575    2.103819   -0.669845
H     -0.568489    2.033524    0.957342
H      1.237012    1.726743    0.811965
H     -1.108353    0.135054   -1.814231
H     -0.084146   -0.358992    1.064013
