28

C      4.022186    1.314802   -1.108664
C      3.080214   -0.563559    0.798140
C      2.740928    1.004753   -1.103061
C     -4.174433   -0.629832    0.469235
C     -3.698791   -1.583818   -0.382149
C     -3.319228    0.260720    1.017436
C     -2.365566   -1.610435   -0.656491
C      2.282023   -0.248597   -0.467666
C     -1.937879    0.247540    0.744759
C     -1.460101   -0.694529   -0.097680
C     -1.124152    1.246999    1.393085
C     -0.077301   -0.813595   -0.459528
O      0.085925    1.430236    1.320757
O     -1.788242    2.176405    2.251695
O      0.241866   -1.765975   -1.277158
O      0.944559   -0.032263   -0.037159
H      4.387632    2.232758   -1.570222
H      4.758407    0.646470   -0.642513
H      4.094154   -0.900998    0.508717
H      3.062225    0.313098    1.451366
H      2.504258   -1.381868    1.305418
H      2.038212    1.674384   -1.565574
H     -5.218773   -0.591313    0.698161
H     -4.381465   -2.311075   -0.832755
H     -3.716425    1.009516    1.690256
H     -1.992452   -2.366530   -1.330513
H      2.320759   -1.119690   -1.166438
H     -1.308540    3.056395    2.501720
