36

C     -1.958372    0.023744    1.735355
C     -2.637718    1.636779    0.035118
C     -3.760417   -0.505159    0.201108
C      4.949565   -0.438911    1.034562
C      4.358449   -1.669488    1.181342
C      4.256074    0.645467    0.579115
C      3.041129   -1.774309    0.853869
C      2.888188    0.521248    0.242632
C      2.271018   -0.692295    0.378688
C      2.218187    1.698805   -0.243492
C      0.871466   -0.949740    0.081042
C     -1.435826   -0.482515   -0.614879
C     -2.416349    0.186239    0.299907
C     -1.826433   -0.360569   -2.070900
F     -0.932600   -0.970107   -2.905632
F     -3.053924   -0.967269   -2.266191
F     -1.973512    0.958833   -2.453540
O      2.922278    2.780049   -0.309359
O      0.919231    1.750487   -0.631824
O      0.443127   -2.167549    0.253415
O     -0.110736   -0.142811   -0.355479
H     -1.063716    0.622690    1.970827
H     -1.823217   -1.050200    1.942079
H     -2.836269    0.345101    2.368179
H     -2.979195    2.094261    1.011242
H     -3.518397    1.800572   -0.648393
H     -1.761841    2.207019   -0.268060
H     -4.347347    0.005285   -0.606101
H     -3.648679   -1.582706    0.033772
H     -4.308880   -0.368510    1.157094
H      6.003656   -0.358348    1.297618
H      4.933862   -2.537382    1.551150
H      4.747974    1.613037    0.470978
H      2.538148   -2.736649    0.957737
H     -1.520388   -1.588536   -0.383764
H      0.551465    2.453435   -1.277141
