48

C      1.051018   -1.419919    1.734328
C     -1.057485    1.481994    0.308545
C      5.640841    0.555006   -2.855232
C     -5.068358    1.787580   -2.629089
C      3.622171   -0.016355    1.825088
C     -3.753175   -1.403187    1.075423
C      4.976024   -0.259232    1.876469
C     -5.115696   -1.229226    1.123334
C      1.609691    0.581540    0.470687
C     -1.511873   -0.931541    0.057995
C      3.878098    0.404311   -0.510756
C     -3.654935    0.060199   -0.765570
C      0.668087   -0.204695    0.974979
C     -0.775226    0.102938    0.835054
C      3.054147    0.320433    0.622472
C     -2.989885   -0.755810    0.121150
C      5.758873   -0.170245    0.749657
C     -5.789222   -0.411814    0.235471
C      5.222254    0.170398   -0.499621
C     -5.023746    0.233334   -0.715836
O      7.137721   -0.428444    0.855617
O     -7.166571   -0.226141    0.270669
O      6.079612    0.234717   -1.573705
O     -5.690213    1.060101   -1.613477
H      0.291683   -2.213715    1.543114
H      2.024165   -1.840773    1.458916
H      0.932945   -1.178650    2.813491
H     -0.939705    1.534839   -0.809303
H     -2.139285    1.681793    0.473299
H     -0.509929    2.271644    0.826978
H      5.950242   -0.215725   -3.605136
H      6.129607    1.522584   -3.165785
H      4.565633    0.709603   -2.973052
H     -4.228430    1.201701   -3.031220
H     -5.843289    2.035165   -3.399319
H     -4.711811    2.751095   -2.178592
H      3.032727   -0.086175    2.718582
H     -3.253623   -2.045676    1.777521
H      5.466388   -0.533066    2.831298
H     -5.709396   -1.745097    1.876234
H      1.279111    1.442631   -0.070373
H     -1.220990   -1.964613    0.314049
H     -1.245968   -0.821606   -1.024704
H      3.382430    0.675487   -1.435588
H     -3.039611    0.567640   -1.517091
H     -1.213635    0.095235    1.878616
H      7.566536   -0.675904    1.725731
H     -7.667943   -0.736907    0.998683
