33

C     -2.156900   -0.705541    1.505139
C     -1.741024    1.433002    0.343010
C     -3.694423    0.102007   -0.177247
C      4.943491    0.709168    0.083254
C      4.482472    1.253361   -1.089949
C      4.065635   -0.013055    0.863544
C      3.164728    1.084684   -1.487875
C      2.753575   -0.173559    0.454560
C      2.279639    0.366519   -0.718324
C      0.902860    0.193294   -1.139285
C     -1.381945   -0.682679   -0.829375
C     -2.232194    0.011443    0.153875
C     -1.721322   -2.110182   -1.110314
F     -1.617478   -2.824504    0.088432
F     -2.958593   -2.323609   -1.607718
F     -0.830042   -2.633073   -2.031458
O      0.516449    0.705271   -2.218151
O     -0.037482   -0.513606   -0.418121
H     -2.487189   -0.027419    2.321701
H     -1.169168   -1.155106    1.679645
H     -2.915543   -1.516320    1.456629
H     -2.294376    1.939877    1.157261
H     -0.642639    1.479732    0.469246
H     -1.966998    1.973969   -0.600199
H     -4.121867    0.848557    0.553082
H     -4.252497   -0.833128    0.028832
H     -3.897309    0.527008   -1.168310
H      5.976936    0.852956    0.375625
H      5.165007    1.821598   -1.708119
H      4.387538   -0.449784    1.780010
H      2.844776    1.530919   -2.419631
H      2.101964   -0.737876    1.082146
H     -1.466079   -0.133920   -1.813408
