27

C     -2.574104    1.002681   -1.485479
C      4.061698   -0.036704    0.905318
C      3.239627   -1.092459    1.234180
C      3.598517    0.944298    0.049441
C      1.969220   -1.138940    0.695137
C      2.324578    0.873399   -0.475051
C     -0.834332    0.399994    0.235559
C      0.100368   -0.293704   -0.701502
C     -3.818104   -1.337619    0.700348
C     -2.273805    0.369835   -0.167866
C      1.481250   -0.173715   -0.161437
O     -4.256479   -0.423566    1.476154
O     -2.795324   -0.947323   -0.154928
H     -1.889950    0.755204   -2.292829
H     -3.600146    0.701570   -1.783490
H     -2.601921    2.124650   -1.413667
H      5.069648    0.057836    1.294889
H      3.622128   -1.850773    1.906732
H      4.259891    1.765276   -0.196356
H      1.366049   -2.002462    0.995156
H      1.966699    1.641531   -1.143069
H     -0.757021   -0.098663    1.224905
H     -0.523151    1.453224    0.394999
H      0.058363    0.066278   -1.736024
H     -0.126468   -1.380632   -0.734392
H     -4.229249   -2.320204    0.731687
H     -2.837980    0.940990    0.601585
