26

C      3.405555    0.611804   -0.771973
C     -2.352650   -0.698151   -0.081113
C     -1.355788    1.419442    0.585386
C     -0.704681    0.404569   -1.534359
C      2.249335   -0.300027   -0.578207
C      0.084121   -0.610367    0.525357
C     -1.094134    0.095583   -0.081904
C     -0.107001   -0.997073    1.953051
F      1.034199   -1.630239    2.387163
F     -0.528650    0.002691    2.769581
F     -1.111541   -1.974280    1.980458
O      2.111615   -1.415762   -1.089009
O      1.230364    0.122442    0.242510
H      4.203377    0.472016   -0.044725
H      3.803124    0.381815   -1.802719
H      2.998219    1.648190   -0.793886
H     -3.059835   -0.198891   -0.805583
H     -2.226515   -1.729859   -0.485800
H     -2.884534   -0.687314    0.888810
H     -1.698843    2.148409   -0.175719
H     -0.421706    1.791811    1.069142
H     -2.113668    1.297333    1.387729
H     -0.373494   -0.543308   -1.980110
H     -1.493655    0.928242   -2.072448
H      0.221553    1.040777   -1.443919
H      0.185232   -1.579853   -0.047713
