33

C      5.440287    1.228581    0.315649
C      0.904578   -2.304437   -0.412429
C      4.379129    0.745828   -0.646772
C     -5.113906    1.202575   -0.180798
C     -4.289503    1.592769    0.843007
C     -4.730247    0.165919   -0.995609
C     -3.070421    0.943241    1.056911
C     -3.523869   -0.482410   -0.789838
C     -0.266332   -0.105041   -0.304701
C     -1.384391   -0.780030    0.478331
C      0.999129   -0.851073   -0.004843
C     -2.690075   -0.096344    0.236544
C      3.209185    0.185068    0.077044
O      3.141547    0.133295    1.329683
O      2.137466   -0.306848   -0.621642
H      6.345014    1.479845   -0.274234
H      5.682379    0.382352    0.991731
H      5.088430    2.078030    0.917465
H      0.696345   -2.935573    0.472362
H      1.867797   -2.660477   -0.874149
H      0.128064   -2.487439   -1.162634
H      4.061185    1.595720   -1.274127
H      4.854895   -0.006801   -1.310676
H     -6.044012    1.696691   -0.345529
H     -4.590124    2.395552    1.471387
H     -5.374240   -0.155275   -1.812733
H     -2.418809    1.241973    1.855879
H     -3.245715   -1.292404   -1.442487
H     -0.553449   -0.107328   -1.355254
H     -0.159805    0.915772    0.115609
H     -1.164782   -0.768476    1.576951
H     -1.477127   -1.850690    0.197187
H      1.161376   -0.792565    1.099732
