34

C     -3.788062   -1.266013   -0.177638
C     -4.073632    1.213874   -0.097484
C      5.271727    0.119529   -1.264516
C     -1.661023    0.255364   -1.297961
C      3.154074    1.066851   -0.423578
C      3.650095   -1.182132    0.086201
C      1.985459    0.934170    0.269033
C      2.469840   -1.322102    0.787795
C     -3.337465    0.034164    0.470259
C      3.993982   -0.010593   -0.512466
C     -1.861302    0.207238    0.203428
C      1.620131   -0.245439    0.882375
O      0.252303   -1.389036    2.808141
O     -0.147667    1.000576    2.382511
O     -1.085251   -0.801100    0.699918
S      0.108069   -0.320365    1.744763
H     -3.695143   -2.127518    0.517246
H     -4.870380   -1.200416   -0.440614
H     -3.217747   -1.488057   -1.101276
H     -4.652118    1.741860    0.685502
H     -3.359423    1.978546   -0.506815
H     -4.805867    0.926288   -0.880019
H      5.446470    1.166190   -1.572949
H      6.118051   -0.184875   -0.587073
H      5.233562   -0.556877   -2.144022
H     -1.205481   -0.685491   -1.682299
H     -2.616072    0.380390   -1.844475
H     -0.975535    1.070404   -1.605755
H      3.380219    2.017577   -0.880142
H      4.310802   -2.047524    0.022484
H      1.313361    1.794404    0.340845
H      2.181181   -2.254905    1.272701
H     -3.574043   -0.044548    1.535545
H     -1.563114    1.219563    0.588228
