34

C      4.339200    0.544012    0.312074
C      2.159087    1.516214    0.803596
C     -5.518627    0.553320    1.007901
C      3.226156   -1.940466   -0.385538
C     -3.240571    1.334764    0.292932
C     -3.804728   -0.972717    0.087760
C     -1.975169    1.061231   -0.232156
C     -2.540058   -1.211924   -0.430849
C      2.910075    0.208869    0.707917
C     -4.158791    0.312848    0.453291
C      2.332934   -0.694546   -0.358836
C     -1.613331   -0.204916   -0.597101
O     -0.225037   -1.818055   -2.145058
O      0.425895    0.572273   -2.043531
O      1.024697   -1.028471   -0.043558
S     -0.049788   -0.621850   -1.259702
H      5.047206   -0.243314    0.647403
H      4.429430    0.782387   -0.753166
H      4.637367    1.476382    0.865530
H      2.733442    2.146997    1.536237
H      2.215371    2.007769   -0.175053
H      1.147057    1.414154    1.216071
H     -5.464266    0.379004    2.110601
H     -5.904019    1.552780    0.748203
H     -6.222085   -0.189996    0.584090
H      2.802423   -2.746762   -0.979363
H      4.168481   -1.616056   -0.902668
H      3.467964   -2.201142    0.650945
H     -3.541949    2.330816    0.586309
H     -4.540028   -1.753955    0.222890
H     -1.278573    1.857169   -0.350077
H     -2.316799   -2.235785   -0.699903
H      2.949494   -0.339401    1.668383
H      2.377542   -0.231631   -1.347624
