33

C     -1.848340   -2.117633    0.330780
C     -2.418711    0.048429   -1.673127
C     -1.704909    1.671954   -0.004217
C     -3.638814    0.237596    0.466922
C      5.021652    0.380109   -0.048480
C      4.113074    0.000303   -1.015492
C      4.598876    0.583709    1.242245
C      2.765912   -0.173542   -0.667555
C      3.250526    0.404976    1.568824
C     -1.378401   -0.689409    0.489734
C      2.336832    0.027970    0.618971
C      0.956378   -0.153375    0.960938
C     -2.299532    0.292308   -0.191022
O      0.570635    0.038144    2.165052
O     -0.035110   -0.531029    0.074172
H     -2.020606   -2.620693    1.305036
H     -2.734654   -2.209660   -0.325570
H     -1.027442   -2.678898   -0.166785
H     -3.207186    0.740853   -2.047646
H     -2.730301   -0.962544   -1.939871
H     -1.484841    0.350651   -2.193332
H     -0.623801    1.584192   -0.281436
H     -2.231580    2.446811   -0.565148
H     -1.748635    1.873128    1.103744
H     -3.505451    0.537440    1.540021
H     -3.995502   -0.811354    0.459649
H     -4.400574    0.866930   -0.029225
H      6.064969    0.506018   -0.357855
H      4.405274   -0.166707   -2.027900
H      5.315230    0.878032    1.981185
H      2.103358   -0.470825   -1.465707
H      2.961513    0.577938    2.605755
H     -1.429840   -0.461822    1.575345
