42

C      2.149016    0.703429    1.494372
C      5.543902    0.543944   -1.896736
C      5.523290   -0.161653   -0.722036
C      4.398041    1.094998   -2.430726
C     -4.591392   -1.802000   -0.822097
C      4.324261   -0.345164   -0.022581
C      3.188127    0.926786   -1.753047
C     -3.295328   -1.828875   -0.343707
C     -5.363789   -0.658930   -0.807043
C      1.711774   -1.428317    0.259392
C      0.629262   -2.012819    1.057973
C      1.900034    0.028933    0.156305
C      3.214724    0.219183   -0.590563
C     -2.786893   -0.629282    0.166253
C     -4.828925    0.520502   -0.292541
C     -3.525972    0.517571    0.194839
C     -2.941467    1.735879    0.738329
C     -1.416581   -0.613250    0.683595
N     -5.571658    1.724130   -0.250677
O     -2.325994    2.501671   -0.044474
O     -3.037414    2.081208    2.078130
O     -0.977619    0.465824    1.136059
O     -6.515228    2.030482   -1.190352
O     -5.359419    2.525455    0.667499
O     -0.642807   -1.708579    0.680703
H      1.503437    0.293659    2.300239
H      1.911174    1.776915    1.366559
H      3.229087    0.649339    1.769256
H      6.480637    0.665623   -2.407436
H      6.421497   -0.587222   -0.314029
H      4.380221    1.651384   -3.345448
H     -5.032008   -2.716140   -1.230485
H      4.362163   -0.900388    0.884872
H      2.270587    1.351952   -2.154023
H     -2.685544   -2.731559   -0.355595
H     -6.380055   -0.613276   -1.175566
H      1.560545   -1.816471   -0.810259
H      2.662292   -1.966541    0.546770
H      0.722806   -3.147193    0.971237
H      0.799528   -1.865078    2.174754
H      1.112501    0.551250   -0.387081
H     -2.720810    2.972620    2.436907
