42

C      2.652663   -2.484484    0.357146
C      5.743512    1.290530    1.274074
C      5.731415    0.950648   -0.081195
C      4.728039    0.838195    2.089767
C     -4.521782    2.760292   -1.156718
C      4.707477    0.170945   -0.578692
C      3.702097    0.053798    1.578434
C     -3.272149    2.229546   -1.320473
C     -5.452591    2.003109   -0.447026
C      1.229874   -0.479706   -0.094373
C      0.142299   -1.313010   -0.694784
C      2.575870   -1.124499   -0.285138
C      3.677237   -0.288865    0.245537
C     -2.894413    0.998349   -0.823939
C     -5.103951    0.772204    0.059527
C     -3.823726    0.259665   -0.124257
C     -3.411455   -1.034701    0.391849
C     -1.546030    0.463816   -1.018423
N     -6.022932   -0.040809    0.794259
O     -3.532969   -2.079358   -0.261426
O     -2.860589   -1.105401    1.664137
O     -0.718044    1.159783   -1.660722
O     -6.966279    0.593955    1.542796
O     -5.971068   -1.281598    0.757814
O     -1.138277   -0.751079   -0.539393
H      3.482128   -2.522936    1.063745
H      1.714543   -2.738446    0.912935
H      2.781992   -3.285327   -0.411397
H      6.554618    1.908118    1.669628
H      6.524941    1.302910   -0.722844
H      4.700511    1.080525    3.152473
H     -4.740912    3.720736   -1.570327
H      4.703068   -0.091055   -1.634745
H      2.910555   -0.288900    2.254955
H     -2.533825    2.807641   -1.871761
H     -6.454025    2.384450   -0.293056
H      1.066272   -0.306298    0.983057
H      1.262159    0.494705   -0.620467
H      0.394244   -1.462413   -1.786008
H      0.106913   -2.339670   -0.274308
H      2.735474   -1.259616   -1.396422
H     -2.862890   -1.965749    2.213501
