40

C      0.913635   -0.366687   -1.123537
C     -2.854264    1.933593   -0.753797
C     -2.573628   -0.960465    1.708232
C     -4.556572    0.316791    0.983333
C     -3.287405   -0.989957   -0.625167
C      6.107968   -0.891763   -0.511322
C      5.658541   -0.153764    0.543578
C      5.213474   -1.325738   -1.454595
C      4.305448    0.132472    0.624187
C      3.857321   -1.026261   -1.353617
C      1.492063    0.770904    0.867886
C      1.954331    0.051735   -0.158981
C     -2.289365    1.102333    0.342113
C      3.370097   -0.281489   -0.298441
C      0.081584    1.105697    1.011062
C     -3.161133   -0.117784    0.585328
O     -0.237879    1.794734    2.028843
O     -0.941112    0.769763    0.185074
H      0.457273    0.520306   -1.619917
H      1.382180   -0.940891   -1.933166
H      0.169679   -1.054992   -0.667261
H     -3.540061    1.269342   -1.359018
H     -2.100774    2.291042   -1.484386
H     -3.491169    2.727287   -0.356974
H     -1.685977   -1.523610    1.299973
H     -2.300275   -0.341759    2.574806
H     -3.338714   -1.727515    1.945203
H     -4.997636   -0.372371    1.717095
H     -5.146152    0.408713    0.045141
H     -4.460264    1.353626    1.382355
H     -2.390480   -1.055695   -1.241989
H     -4.204464   -0.705947   -1.217740
H     -3.511772   -2.037953   -0.268893
H      7.172631   -1.120920   -0.580961
H      6.343812    0.208440    1.313821
H      5.575664   -1.910236   -2.288335
H      4.000341    0.710005    1.462229
H      3.192454   -1.389086   -2.118570
H      2.178097    1.123282    1.626844
H     -2.357496    1.704817    1.291543
