44

C      4.145573    0.861202   -1.773766
C      3.378371    1.367661    0.947386
C      2.716335    0.553830   -1.279008
C     -2.387446    3.866990    0.321731
C     -1.601661   -5.320142    0.081222
C     -2.497307    3.273810   -0.908716
C     -2.213904    3.128379    1.476531
C     -1.156850   -4.597481   -1.018491
C     -1.880685   -4.691330    1.269868
C     -2.433543    1.907128   -1.000049
C     -2.151084    1.764885    1.378540
C     -0.998831   -3.214854   -0.890179
C     -1.711306   -3.301862    1.364738
C      0.989954    1.654101    0.222782
C      2.413338    1.514746   -0.190789
C     -2.258524    1.128166    0.148572
C     -1.272670   -2.575290    0.286722
C     -2.203871   -0.302685    0.092885
C      0.137882   -0.624752    0.841475
N     -1.104259   -1.144438    0.403763
O      0.400094    0.679152    0.964410
S     -3.606366   -1.047897   -0.396921
S      1.313686   -1.715210    1.221491
H      4.228501    1.962507   -1.993158
H      4.875042    0.644896   -0.961156
H      4.387311    0.256164   -2.669490
H      2.876004    1.647246    1.898400
H      3.731704    0.304832    1.063780
H      4.290656    1.980195    0.756509
H      2.756000   -0.489792   -0.961993
H      2.078174    0.716319   -2.176370
H     -2.436547    4.958794    0.410647
H     -1.734652   -6.409265    0.007577
H     -2.631424    3.922578   -1.764452
H     -2.128563    3.617206    2.445542
H     -0.955030   -5.140036   -1.918676
H     -2.221489   -5.276671    2.097854
H     -2.518087    1.415095   -1.963645
H     -2.013767    1.174504    2.289490
H     -0.651059   -2.696006   -1.771254
H     -1.920624   -2.788112    2.275803
H      0.924328    2.638921    0.772280
H      0.400331    1.844097   -0.723833
H      2.646261    2.552418   -0.678055
