33

C      3.650522   -1.472477    0.837873
C      3.863962    1.100864   -0.105518
C     -2.435729   -1.747740   -1.236166
C      2.434414   -0.837570    0.130689
C     -4.809259    0.234191    0.855676
C     -3.997183    1.254001    1.309929
C     -4.289325   -0.732164    0.030688
C     -2.671093    1.273128    0.917333
C      1.499423    1.519413   -0.162872
C      2.503269    0.607283    0.422420
C     -2.941428   -0.687529   -0.350986
C     -2.119860    0.320766    0.092391
C     -0.712517    0.351995   -0.317750
O     -0.251855   -0.534272   -1.072619
O      0.153906    1.334385    0.096529
H      4.472413   -1.493749    0.107309
H      3.934454   -0.854836    1.714505
H      3.385860   -2.492257    1.184068
H      3.855301    0.921664   -1.192272
H      3.975010    2.200451    0.085010
H      4.690208    0.522331    0.329462
H     -3.251913   -2.486468   -1.398242
H     -1.648649   -2.337843   -0.688573
H     -2.068527   -1.398254   -2.216886
H      2.447785   -1.040188   -0.937906
H      1.510710   -1.316017    0.595004
H     -5.860542    0.225682    1.171488
H     -4.420103    2.018195    1.965945
H     -4.903844   -1.521266   -0.325086
H     -2.002862    2.060665    1.255552
H      1.701148    1.670492   -1.266904
H      1.744342    2.550863    0.271199
H      2.561961    0.786263    1.527155
