36

C      4.914718   -0.493998    0.973287
C      2.720256   -1.007078   -0.916593
C      4.492907    0.516392   -0.059872
C     -4.846624   -1.863712   -0.257910
C     -3.602831   -2.434938   -0.122955
C     -3.041184    2.532085    0.112792
C     -5.013974   -0.499089   -0.233800
C     -4.132153    1.711615   -0.050580
C     -2.492806   -1.591916    0.041859
C     -1.791630    1.975046    0.248709
C      2.183298    0.867652    0.732795
C      3.003364    0.341800   -0.385394
C     -3.933663    0.337176   -0.072883
C     -2.648657   -0.221117    0.067492
C     -1.562123    0.590224    0.229801
C     -0.187560    0.100095    0.377163
O      0.191102   -1.073070    0.345811
O      0.834605    1.025891    0.576520
H      4.199895   -1.317266    1.090319
H      5.042726    0.006938    1.974959
H      5.921700   -0.869019    0.690397
H      1.913903   -1.037949   -1.690326
H      3.645383   -1.275968   -1.547638
H      2.685418   -1.832028   -0.189006
H      5.025774    0.364751   -1.029992
H      4.618623    1.559295    0.256644
H     -5.751390   -2.463719   -0.389417
H     -3.471226   -3.507037   -0.141862
H     -3.214355    3.599578    0.127811
H     -6.003107   -0.041007   -0.340977
H     -5.143319    2.088395   -0.163179
H     -1.525553   -2.054647    0.147884
H     -0.919571    2.605407    0.378320
H      2.585000    1.924862    0.911445
H      2.456069    0.369456    1.714978
H      2.846987    1.066900   -1.250753
