32

C      3.132575    0.505520   -1.559607
C      3.947250   -0.370850    1.162775
C      2.719386    1.204230   -0.287111
C     -3.318603    1.890525   -0.418304
C     -4.512559    1.218394   -0.555209
C     -2.173960    1.189380   -0.114466
C     -4.525693   -0.129890   -0.383504
C      1.538793   -0.731199    0.751817
C      2.610779    0.291896    0.889302
C     -2.154963   -0.204977    0.068142
C     -3.343830   -0.849549   -0.069204
C     -0.884179   -0.855797    0.328546
N     -3.503880   -2.239132    0.079977
O     -0.698216   -2.069348    0.427557
O     -2.777467   -3.028978    0.887996
O     -4.414571   -2.826912   -0.611285
O      0.284206   -0.080396    0.493575
H      4.231354    0.314545   -1.502897
H      2.935572    1.149172   -2.427987
H      2.654128   -0.462754   -1.721402
H      4.731373    0.398783    0.948873
H      4.025831   -0.708193    2.196197
H      4.078887   -1.232767    0.486169
H      3.493781    1.976744   -0.060601
H      1.739995    1.715090   -0.428310
H     -3.285014    2.977186   -0.551515
H     -5.428678    1.756629   -0.796077
H     -1.231158    1.701546   -0.003974
H     -5.468874   -0.658500   -0.491768
H      1.751689   -1.381522   -0.141162
H      1.477049   -1.386373    1.631857
H      2.369000    0.927502    1.771601
