36

C     -5.261170   -0.927177   -0.535690
C     -2.922973    1.491636    1.164419
C     -4.820835    0.314011    0.182604
C      6.091650   -0.586214    0.096132
C      5.880611    0.758659    0.308831
C      5.034896   -1.441039   -0.175978
C      4.584547    1.228418    0.242594
C      2.663982   -1.784653   -0.509106
C      1.372575   -1.305160   -0.573099
C      2.212509    0.857690   -0.095442
C     -2.592352   -0.056651   -0.791833
C     -3.314629    0.259348    0.460513
C      3.742034   -0.956741   -0.239285
C      3.506297    0.385788   -0.029840
C      1.128293    0.031542   -0.365664
C     -0.239840    0.581636   -0.426078
O     -0.399292    1.794575   -0.230742
O     -1.260469   -0.245033   -0.689079
H     -5.023772   -0.903438   -1.632574
H     -6.358328   -1.034022   -0.401528
H     -4.705829   -1.783622   -0.091888
H     -3.762448    1.717171    1.912185
H     -2.846067    2.365390    0.497750
H     -2.027411    1.359049    1.768855
H     -5.322921    0.320625    1.172539
H     -5.072287    1.247863   -0.362828
H      7.091730   -1.035607    0.131922
H      6.737351    1.384365    0.517569
H      5.173823   -2.489034   -0.344668
H      4.395234    2.274103    0.405052
H      2.835997   -2.844236   -0.676025
H      0.538816   -1.990164   -0.789665
H      2.035688    1.904883    0.068743
H     -2.849483    0.711380   -1.590708
H     -3.021681   -1.014952   -1.257196
H     -3.224244   -0.590391    1.209307
