36

C     -4.538387   -1.996182    0.151817
C     -4.950787    0.814378   -0.655957
C     -3.504746   -0.921624    0.417328
C      6.083136   -0.560964    0.134351
C      6.006790    0.800410    0.397531
C      4.950981   -1.301158   -0.121872
C      4.746463    1.366427    0.388530
C      2.543061   -1.411894   -0.375970
C      1.308107   -0.791191   -0.371653
C      2.368761    1.258093    0.137825
C     -2.497817    1.194337   -0.344025
C     -3.591634    0.172773   -0.652626
C      3.700462   -0.698270   -0.122602
C      3.604972    0.640080    0.134157
C      1.223596    0.550919   -0.113086
C     -0.052704    1.237746   -0.099631
O     -0.145686    2.482121    0.138759
O     -1.232531    0.577031   -0.344735
H     -5.534726   -1.616280    0.467601
H     -4.510440   -2.206532   -0.935644
H     -4.225561   -2.895165    0.698482
H     -5.559637    0.550124    0.221278
H     -4.899466    1.923339   -0.683411
H     -5.554553    0.522296   -1.561194
H     -2.514010   -1.414604    0.338226
H     -3.638980   -0.476271    1.414370
H      7.043045   -1.048528    0.129984
H      6.910410    1.342008    0.592264
H      4.974011   -2.360854   -0.330230
H      4.657568    2.436240    0.592560
H      2.651510   -2.457555   -0.573316
H      0.433708   -1.409340   -0.578760
H      2.360968    2.325837    0.349253
H     -2.723156    1.763927    0.563316
H     -2.492709    1.925999   -1.189621
H     -3.400017   -0.317669   -1.626743
