35

C     -4.726265   -0.440354    1.073093
C     -2.509114    2.054655   -0.763197
C     -4.244876    0.623348    0.155831
C      4.522054    0.211204    0.343495
C      4.191284   -1.076686    0.026642
C      2.216676    0.750257    0.386356
C     -1.878095   -0.188990    0.017253
C     -2.798191    0.950618    0.249283
C      3.520966    1.138423    0.526069
C      2.834379   -1.457938   -0.113422
C      1.838039   -0.575182    0.058922
C      2.612217   -2.841673   -0.454279
C      0.442239   -0.863689   -0.057409
N      3.873056    2.468207    0.853548
O      1.541349   -3.433522   -0.643572
O      3.731201   -3.716625   -0.613690
O     -0.029284   -1.969443   -0.330929
O      2.854133    3.389772    1.034164
O      5.053910    2.782564    0.971217
O     -0.515146    0.172653    0.149460
H     -4.002674   -1.198411    1.360150
H     -5.199478    0.061419    1.963175
H     -5.589870   -0.961246    0.566295
H     -2.132511    1.555109   -1.691373
H     -1.730117    2.740156   -0.398882
H     -3.424850    2.592959   -1.050333
H     -4.467420    0.343976   -0.915684
H     -4.817360    1.574086    0.310524
H      5.569353    0.520776    0.455227
H      4.972089   -1.805054   -0.116989
H      1.439775    1.482823    0.531131
H     -1.991630   -0.498336   -1.064698
H     -2.116179   -1.095811    0.594522
H     -2.611684    1.417837    1.250719
H      3.572026   -4.707883   -0.501099
