35

C      4.576270   -0.381465   -0.919089
C      2.676224    1.350298    0.324639
C      3.308852   -0.941057   -0.312708
C     -3.166792   -2.323264   -0.011112
C     -1.971228   -1.801741    0.394183
C     -4.157179   -1.437482   -0.406791
C      1.892547   -0.630833    1.718360
C      2.910497   -0.019955    0.836158
C     -1.704246   -0.447028    0.428351
C     -3.899572   -0.082389   -0.375943
C     -2.678929    0.416407    0.039380
C     -2.422102    1.837011    0.066908
C     -0.378695   -0.010660    0.884391
N     -4.917754    0.817477   -0.782867
O     -1.943749    2.413400   -0.940488
O     -2.706164    2.564885    1.212520
O     -0.161609    1.220288    0.907707
O     -5.005748    2.098369   -0.311551
O     -5.773222    0.420381   -1.610371
O      0.617668   -0.826330    1.277766
H      5.327559   -0.132450   -0.143171
H      4.393346    0.556071   -1.496584
H      5.058347   -1.107769   -1.610427
H      3.709845    1.737883    0.019195
H      2.384116    2.062596    1.119911
H      2.053762    1.401323   -0.592374
H      2.549138   -0.955785   -1.106458
H      3.537793   -1.942896    0.074628
H     -3.334706   -3.390097   -0.022779
H     -1.195816   -2.489368    0.703727
H     -5.103106   -1.822735   -0.728865
H      1.969661   -0.104716    2.709385
H      2.302513   -1.663101    1.974928
H      3.858371    0.040601    1.463106
H     -2.605891    3.574131    1.249926
