38

C     -5.311056    0.585260    1.588568
C     -3.992997    0.445144   -1.083929
C     -3.813152    0.498813    1.410502
C      4.296977    0.325825    2.265714
C      2.924641    0.284380    2.372679
C      3.969233   -0.108856   -2.471148
C      4.878312    0.236014    1.016674
C      4.757298    0.020653   -1.347406
C      2.158895    0.155120    1.242485
C      2.594173   -0.150620   -2.366644
C     -1.926677   -0.242508    0.046126
C     -3.450183   -0.228991    0.132096
C      4.114613    0.105758   -0.125560
C      2.738322    0.065494   -0.003679
C      1.955030   -0.065523   -1.146329
C     -0.181644   -1.072144   -1.370986
N      0.565539   -0.101889   -0.975393
O      0.406889   -2.141477   -1.999631
O     -1.543967   -0.955953   -1.125525
H     -5.788621    0.063633    0.721016
H     -5.643089    0.145024    2.538411
H     -5.622253    1.651971    1.585952
H     -3.265739    1.184684   -1.503296
H     -4.935988    0.987044   -0.885857
H     -4.217938   -0.311294   -1.884047
H     -3.410707   -0.041978    2.284092
H     -3.336755    1.492063    1.356294
H      4.877691    0.427955    3.168876
H      2.439288    0.351561    3.328159
H      4.429776   -0.180248   -3.463333
H      5.950013    0.266097    0.907564
H      5.837656    0.056723   -1.393190
H      1.067631    0.119094    1.292976
H      1.956700   -0.252459   -3.242964
H     -1.585448   -0.804508    0.950099
H     -1.513889    0.767452    0.085205
H     -3.780889   -1.292945    0.143031
H      1.402315   -2.284370   -2.047603
