24

C     -2.278304    1.718830    0.199115
C     -2.353756   -1.163664   -0.556743
C      3.750372    1.246700    0.013865
C     -1.120708    0.780365    0.429688
C      0.040470   -1.224402   -0.271497
C     -1.105779   -0.329087   -0.587763
C      2.415985   -1.386833    0.033356
O      1.297838   -0.675640   -0.242162
S      2.334946   -2.996245    0.179462
S      3.962406   -0.537956    0.231188
H     -2.848255    1.445019   -0.704190
H     -2.995801    1.658417    1.057180
H     -1.939206    2.772490    0.128745
H     -3.271089   -0.586279   -0.778934
H     -2.212858   -1.984277   -1.299905
H     -2.409788   -1.672744    0.436769
H      3.135557    1.454189   -0.887136
H      4.752956    1.721746   -0.123190
H      3.233985    1.683575    0.895842
H     -0.185229    1.365843    0.327915
H     -1.108224    0.353740    1.454645
H     -0.208992   -2.069700    0.490060
H      0.038484   -1.647044   -0.240086
H     -0.925012    0.072957   -1.579943
