38

C     -3.895787    1.427888    1.858866
C     -4.102002   -0.639890   -0.318525
C     -4.129754    1.749691    0.427304
C      3.880219   -1.188408    2.364354
C      2.524304   -0.942482    2.405529
C      3.973721    0.020746   -2.307326
C      4.572864   -1.005194    1.167486
C      4.629810   -0.404567   -1.160659
C      1.874501   -0.519794    1.264730
C      2.620540    0.265706   -2.264393
C     -2.031614    0.635039   -0.380602
C     -3.535548    0.748636   -0.526498
C      3.932675   -0.581119    0.014425
C      2.572899   -0.343324    0.089354
C      1.950544    0.081360   -1.079189
C     -0.253505   -0.549232   -1.454367
N      0.555928    0.329644   -1.018627
O      0.232343   -1.723652   -1.976260
O     -1.602799   -0.273730   -1.379508
H     -4.656309    1.986534    2.468635
H     -2.905112    1.858741    2.154096
H     -4.002464    0.373612    2.122955
H     -3.914831   -1.216990   -1.245440
H     -5.181601   -0.586575   -0.079308
H     -3.525297   -1.135529    0.490339
H     -3.761893    2.750691    0.198531
H     -5.226073    1.754288    0.243965
H      4.462592   -1.519786    3.206265
H      2.022269   -1.095582    3.350314
H      4.532395    0.158581   -3.235088
H      5.649354   -1.202604    1.142972
H      5.695714   -0.607483   -1.156535
H      0.814673   -0.321479    1.273647
H      2.061057    0.599679   -3.132784
H     -1.803983    0.249876    0.634561
H     -1.530046    1.618977   -0.467919
H     -3.733447    1.045228   -1.566941
H      1.233661   -1.797494   -2.128359
