30

C     -1.693394    1.299437   -0.529197
C     -3.478300   -1.885041    0.515808
C     -2.782304    0.349955   -0.115770
C      3.521316    1.867143    0.690925
C      4.385574    1.552086   -0.339456
C      2.355325    1.121108    0.802448
C      4.141534    0.542413   -1.247998
C     -1.284450   -1.120893    1.245453
C     -2.244190   -1.066949    0.106565
C      2.068478    0.104154   -0.080040
C      2.956147   -0.179312   -1.094529
C      0.826521   -0.679696    0.050639
Br     2.623172   -1.574053   -2.352892
O      0.549899   -1.609605   -0.744650
O     -0.091388   -0.428007    1.054253
H     -1.077871    1.562163    0.332127
H     -2.219051    2.234494   -0.877212
H     -1.128523    0.897645   -1.393999
H     -4.251500   -1.858244   -0.281128
H     -3.192059   -2.906672    0.815874
H     -3.942442   -1.418808    1.421116
H     -3.181426    0.669350    0.868510
H     -3.593597    0.349462   -0.859557
H      3.727548    2.661223    1.394115
H      5.293853    2.166527   -0.389963
H      1.662999    1.360043    1.613165
H      4.837268    0.325756   -2.037098
H     -1.795013   -0.645328    2.133372
H     -1.148435   -2.181740    1.531638
H     -1.845689   -1.508609   -0.807555
