32

C     -4.723680    1.525680   -0.169389
C     -3.435740   -1.062344    0.467055
C     -3.222166    1.357414   -0.134604
C      5.462622   -0.418500   -0.403082
C      4.926418    0.845401   -0.183683
C      4.650255   -1.505424   -0.615739
C      3.545432    1.005054   -0.180694
C      3.284568   -1.347912   -0.612852
C     -1.371965   -0.259552   -0.602750
C     -2.853223   -0.060766   -0.478203
C      2.756184   -0.103693   -0.396878
C      0.675087   -0.272600    0.673365
N      1.335768    0.043330   -0.396896
O      1.336686   -0.749795    1.811584
O     -0.700697   -0.115985    0.633791
H     -5.082813    1.419701   -1.217388
H     -5.251851    0.813157    0.493470
H     -4.975675    2.548315    0.229780
H     -4.542738   -1.095923    0.366458
H     -3.152742   -0.847745    1.529636
H     -3.074679   -2.066236    0.155740
H     -2.842793    1.683635    0.846439
H     -2.808745    2.046763   -0.898187
H      6.557218   -0.532502   -0.403154
H      5.592373    1.674972   -0.020504
H      5.112692   -2.481412   -0.784236
H      3.154527    2.000141   -0.007372
H      2.677418   -2.229419   -0.784333
H     -0.952936    0.478474   -1.347177
H     -1.129565   -1.254411   -1.023487
H     -3.291483   -0.267002   -1.487091
H      2.346244   -0.770815    1.815165
