32

C      3.235405   -0.463769    1.661855
C      2.908843    1.627143   -0.457283
C      2.795822   -0.767351    0.268007
C     -4.529596    0.305883    1.222614
C     -4.477503    0.780758   -0.070637
C     -3.415753   -0.251979    1.821308
C     -3.277329    0.680379   -0.746152
C     -2.233526   -0.346241    1.143721
C      1.636045    0.034750   -1.783256
C      2.060852    0.390513   -0.374218
C     -2.141763    0.119999   -0.157836
C     -0.373560   -1.116660   -1.159713
N     -0.915023    0.018976   -0.852469
O     -1.037716   -2.267728   -0.784355
O      0.834411   -1.109028   -1.843657
H      3.441252   -1.424529    2.172012
H      2.386691    0.006729    2.230850
H      4.126855    0.179159    1.729081
H      2.370720    2.350542   -1.111062
H      3.893050    1.454410   -0.910403
H      3.014708    2.097885    0.557772
H      2.080438   -1.621201    0.321034
H      3.646156   -1.096744   -0.329149
H     -5.431432    0.350504    1.811451
H     -5.361648    1.219447   -0.534995
H     -3.448607   -0.632393    2.850374
H     -3.215991    1.047061   -1.761286
H     -1.358366   -0.787349    1.621504
H      1.075578    0.922187   -2.169820
H      2.550919   -0.075963   -2.399537
H      1.136832    0.646757    0.182630
H     -1.976763   -2.272146   -0.381186
