23

C     -1.316229    1.799317    1.221862
C     -1.632802   -1.028714   -1.283544
C     -1.492721    1.119994   -0.127586
C     -0.139715   -0.766865    0.702523
C     -1.456026   -0.376144    0.066537
C      3.386824   -0.182398   -0.649037
C      2.236456   -0.598006    0.213212
Cl     3.203375   -1.009924   -2.222298
Cl     4.912966   -0.692767    0.056050
O      2.475193   -1.181298    1.288394
O      0.931193   -0.358573   -0.140224
H     -0.254241    1.843391    1.522483
H     -1.731119    2.830766    1.164606
H     -1.870084    1.223824    1.972370
H     -2.696514   -1.367323   -1.397200
H     -0.969048   -1.927628   -1.388199
H     -1.426447   -0.314136   -2.110392
H     -2.449379    1.459366   -0.532994
H     -0.639624    1.443891   -0.774653
H     -0.077867   -0.259407    1.687033
H     -0.132363   -1.878845    0.815375
H     -2.282074   -0.684798    0.717893
H      3.420246    0.906277   -0.802212
