22

C     -2.944008   -0.963743   -0.186677
C     -0.695909   -0.056727    1.482748
C     -1.885789   -0.023385   -0.682823
C      0.490709    0.622930   -0.613938
C     -0.567533   -0.257409    0.008155
C      2.820329    1.140163   -0.571162
N      5.044766   -0.884563    1.097452
N      4.152749    1.007661   -0.120917
N      4.466318   -0.055311    0.414003
O      2.605817    2.007596   -1.484714
O      1.768785    0.383845   -0.070731
H     -3.246820   -1.645173   -0.998284
H     -3.815802   -0.389744    0.189892
H     -2.496057   -1.582519    0.623207
H     -1.787127   -0.028767    1.738404
H     -0.244551   -0.899017    2.030555
H     -0.226028    0.906861    1.820223
H     -1.770145   -0.138839   -1.783859
H     -2.229580    1.032392   -0.538152
H      0.555605    0.444926   -1.706307
H      0.268262    1.700423   -0.460984
H     -0.263991   -1.306788   -0.186092
