25

C     -1.998988   -1.304991    0.984308
C     -2.176651   -0.685952   -1.377691
C      4.215518    0.380301    0.316185
C      0.483118   -0.263504   -0.077093
C     -1.214610    2.923867   -0.239817
C     -1.992127   -0.162734    0.008371
C      2.882048   -0.250251    0.035366
C     -0.721910    0.627101    0.180778
N     -0.689435    1.818218   -0.629762
O     -1.596473    3.927360    0.384369
O      2.852450   -1.436481   -0.381481
O      1.689936    0.411241    0.213490
H     -3.019118   -1.446832    1.387143
H     -1.281779   -1.110338    1.821703
H     -1.674911   -2.243380    0.491332
H     -1.639896   -1.648436   -1.555716
H     -3.259400   -0.917853   -1.516263
H     -1.846634    0.059316   -2.145802
H      4.446344    0.346556    1.401862
H      4.171714    1.431862    0.000648
H      4.984451   -0.161117   -0.280483
H      0.366963   -1.135475    0.610146
H      0.495947   -0.629671   -1.138583
H     -2.837831    0.517641    0.269432
H     -0.638724    0.953550    1.237560
