22

C     -2.225590   -1.384209   -0.243029
C     -0.367584   -0.332022    1.737042
C     -2.055580    0.076286    0.025074
C      0.305512   -0.007240   -0.580217
C     -0.647731    0.437276    0.465513
C      2.197533    1.397051   -0.127382
N      5.282808   -0.087349    0.368464
N      3.564745    1.633675    0.117153
N      4.305419    0.627434    0.142283
O      1.401063    2.338017   -0.155165
O      1.644149    0.152436   -0.348467
H     -3.331722   -1.584417   -0.267846
H     -1.790336   -2.009479    0.545416
H     -1.815351   -1.639237   -1.252530
H     -0.088206   -1.369110    1.471113
H     -1.230400   -0.353462    2.422019
H      0.500404    0.085805    2.299907
H     -2.333269    0.652699   -0.892551
H     -2.780434    0.357142    0.837695
H      0.045257    0.550635   -1.529094
H      0.095658   -1.071640   -0.819642
H     -0.676345    1.529709    0.634431
