30

C     -3.478467   -1.045570    1.012998
C     -3.473215    1.455448   -0.264768
C     -2.262392   -0.649783    0.135444
C      4.162096   -1.773796   -0.273245
C      2.849512   -1.575265   -0.643793
C      4.866378   -0.821634    0.432935
C      2.952208    0.580795    0.425899
C     -1.033716    1.475017   -0.534558
C     -2.146174    0.823288    0.223427
C      2.265640   -0.386459   -0.281226
C      4.263222    0.360758    0.785579
C      0.884007   -0.108235   -0.638047
Br     5.196860    1.707328    1.762128
O      0.251415   -0.976393   -1.278521
O      0.262078    1.061075   -0.298308
H     -3.384991   -0.558853    2.003606
H     -3.461483   -2.140903    1.114108
H     -4.398975   -0.710388    0.507603
H     -4.197702    1.466131    0.558077
H     -3.833766    0.926820   -1.163364
H     -3.254405    2.508179   -0.540344
H     -2.456660   -1.022558   -0.869271
H     -1.398769   -1.152872    0.651517
H      4.621459   -2.707236   -0.557603
H      2.309254   -2.341352   -1.202619
H      5.898127   -0.962158    0.731657
H      2.470131    1.515773    0.702922
H     -1.128496    2.608511   -0.454244
H     -1.273048    1.331518   -1.650749
H     -2.070128    1.112817    1.316159
