21

C     -3.593831   -0.433453   -0.264461
C      3.732713   -0.528764    0.096831
C     -1.159794   -0.006687   -0.665551
C      0.120903    0.329684    0.079101
C     -2.257685   -0.099668    0.366269
Cl    -1.857731   -1.305555    1.624111
O      2.191367    1.044993    1.567033
O      3.192640    2.076624   -0.408147
O      1.206346    0.437994   -0.802719
S      2.557984    0.809904    0.126742
H     -3.922826   -1.445728    0.015047
H     -3.469509   -0.387837   -1.375623
H     -4.350981    0.310753    0.024180
H      4.762318   -0.096624   -0.048878
H      3.707977   -1.098950    1.062981
H      3.478182   -1.177950   -0.748252
H     -1.405270    0.818103   -1.346970
H     -0.990393   -0.977269   -1.178724
H      0.383596   -0.459212    0.804162
H     -0.021725    1.307773    0.609561
H     -2.304283    0.881868    0.887115
