40

C     -4.028298    1.775048    0.354908
C     -3.739444   -1.068365    0.969812
C     -2.740235   -1.232732   -1.223070
C      5.525859   -0.847117    1.520898
C     -2.636391    1.686645   -0.166365
C      3.977209    0.743245    0.382984
C      3.794774   -1.542133   -0.166301
C      2.950497    1.024529   -0.501277
C      2.767851   -1.256280   -1.049987
C     -0.433878    0.529479   -0.249649
C     -2.464064   -0.825540    0.224054
C      4.416356   -0.544172    0.565215
C     -1.853398    0.519200    0.326599
C      2.325173    0.027698   -1.236003
O      1.073465   -0.461517   -3.486517
O      1.363410    1.859551   -2.842585
O     -0.452560    0.472482   -1.633748
S      1.049843    0.480643   -2.317234
H     -4.346911    2.868414    0.478343
H     -4.153137    1.367965    1.365358
H     -4.793578    1.401257   -0.378436
H     -4.658327   -0.767010    0.471341
H     -3.675533   -0.815877    2.055398
H     -3.832326   -2.212743    1.008707
H     -1.826292   -1.647475   -1.697918
H     -3.495056   -2.046270   -1.230275
H     -3.171722   -0.376473   -1.754255
H      6.403579   -0.185054    1.336491
H      5.217499   -0.715367    2.563191
H      5.833440   -1.906537    1.385664
H     -2.104343    2.603162    0.212552
H     -2.586466    1.803557   -1.277227
H      4.475765    1.517185    0.965272
H      4.149721   -2.566639   -0.016318
H      2.653077    2.051977   -0.598572
H      2.305502   -2.041916   -1.601386
H      0.134576   -0.259073    0.241386
H      0.000731    1.507351    0.039096
H     -1.740107   -1.626957    0.581004
H     -1.686261    0.705860    1.431943
