44

C      3.534939   -2.237971   -1.584724
C      2.548335    1.333481    1.004400
C      4.292676   -0.169434    0.281728
C      2.332062   -2.068423   -0.747891
C     -4.230652   -1.985951    1.271155
C     -3.004555   -2.184886    0.685397
C     -4.060763    2.651959    0.214349
C     -4.806034   -0.745856    1.307470
C     -4.732742    1.608380    0.777657
C     -2.350744   -1.123108    0.130132
C     -2.847945    2.456437   -0.365033
C      1.626808    0.134769   -1.664855
C      2.831058   -0.084327    0.566490
C      1.907015   -0.647283   -0.440089
C     -4.164256    0.346185    0.752100
C     -2.920827    0.125923    0.162101
C     -2.275688    1.209223   -0.395321
C      0.002944    1.778968   -0.776635
N     -0.997215    0.988793   -0.998027
O     -0.164474    2.863625    0.063862
O      1.179918    1.444474   -1.430093
H      3.650749   -1.496667   -2.386590
H      4.486434   -2.451058   -1.035348
H      3.389443   -3.215728   -2.169191
H      2.646347    2.090975    0.236834
H      1.604756    1.431268    1.559018
H      3.340780    1.620024    1.777336
H      4.592554   -0.080477   -0.761460
H      4.753903   -1.048600    0.821153
H      4.816522    0.706412    0.790847
H      2.384516   -2.583660    0.239452
H      1.441351   -2.539867   -1.258978
H     -4.716502   -2.845687    1.698528
H     -2.516827   -3.150388    0.636750
H     -4.493821    3.654708    0.225002
H     -5.771468   -0.590862    1.768972
H     -5.693516    1.696679    1.250777
H     -1.383934   -1.202237   -0.351580
H     -2.286155    3.271719   -0.828024
H      0.762840   -0.376776   -2.188014
H      2.454793    0.104384   -2.407419
H      2.670560   -0.705568    1.512881
H      0.909205   -0.771519    0.091053
H     -0.742391    2.787945    0.918702
