39

C     -1.438578   -2.357591    1.034168
C     -1.663234    1.413747    1.678237
C     -1.613748   -1.042129    1.770355
C     -4.394409    0.189036   -2.270276
C     -4.726380   -0.234380   -1.010515
C     -3.097793    0.596393   -2.511024
C     -3.773139   -0.252267    0.007167
C     -2.163056    0.574123   -1.500346
C      3.380259    0.587537    1.350925
C      2.629780    0.053671   -0.830871
C      4.698253    0.578674    0.895157
C      3.955636    0.044476   -1.283950
C      2.328369    0.320928    0.473376
C     -2.481771    0.150408   -0.225505
C      5.006921    0.309307   -0.415804
C      0.981953    0.324926    1.036394
C     -1.465285    0.137732    0.890070
N      6.367043    0.293652   -0.885042
O      0.780869    0.491548    2.275999
O      7.411817    0.562069   -0.061312
O      6.620222    0.022207   -2.090117
O     -0.160776    0.151679    0.267350
H     -0.600138   -2.363266    0.338800
H     -1.247575   -3.137196    1.804964
H     -2.373778   -2.654431    0.505168
H     -1.139108    2.272770    1.214812
H     -1.386433    1.284089    2.742350
H     -2.742393    1.659851    1.670784
H     -2.597105   -1.085518    2.289046
H     -0.839281   -1.049640    2.572322
H     -5.132899    0.206876   -3.082499
H     -5.729829   -0.554165   -0.806924
H     -2.833185    0.934585   -3.516262
H     -4.058506   -0.597577    1.005309
H     -1.157283    0.895174   -1.702339
H      3.140369    0.805910    2.383119
H      1.824242   -0.160344   -1.536156
H      5.532376    0.796952    1.572957
H      4.157571   -0.169818   -2.308032
