42

C     -2.695540   -1.271299   -2.017853
C     -1.930760   -0.036705   -1.583512
C     -5.723286   -0.096149    1.689043
C     -5.007987   -1.253282    1.520452
C     -5.162161    1.096724    1.269338
C      5.155706   -1.003445    1.825074
C      3.826827   -1.149415    2.126396
C      3.916049    1.171584   -2.234695
C      5.496511   -0.374351    0.636552
C     -3.758768   -1.215219    0.944271
C     -3.886710    1.112279    0.684247
C      4.883375    0.711986   -1.391258
C      2.851233   -0.678073    1.261073
C      2.578573    1.024347   -1.930818
C      4.520748    0.093282   -0.221804
C     -3.174442   -0.048547    0.517546
C      3.178706   -0.050952    0.076529
C      2.187364    0.407452   -0.764174
C     -1.837801   -0.057470   -0.092174
C      0.228342    1.214089    0.180202
N      0.806968    0.246434   -0.433528
O      0.834776    2.394259    0.544169
O     -1.103536    0.991729    0.468475
H     -2.142604   -2.164609   -1.623504
H     -3.701980   -1.323825   -1.575297
H     -2.677574   -1.359691   -3.117391
H     -2.437035    0.871904   -1.932263
H     -0.912205   -0.163269   -2.027638
H     -6.727904   -0.098227    2.148502
H     -5.428785   -2.186524    1.840489
H     -5.705481    2.013383    1.392230
H      5.922208   -1.379503    2.515716
H      3.497800   -1.634465    3.044134
H      4.172309    1.664640   -3.165986
H      6.546268   -0.262086    0.404241
H     -3.173750   -2.137783    0.803126
H     -3.480407    2.045765    0.370799
H      5.937035    0.815243   -1.606733
H      1.802806   -0.789085    1.491008
H      1.833803    1.399022   -2.619305
H     -1.343253   -1.022800    0.189617
H      1.834561    2.482650    0.394706
