45

C     -1.444069    1.810726   -0.825689
C      7.072741   -0.371871    1.401471
C     -6.369698    0.553020    1.407169
C      6.280021   -1.459307    1.608296
C      6.570299    0.762545    0.795904
C     -5.797520   -0.421786    2.161455
C     -5.758534    0.953914    0.243968
C      4.958867   -1.438594    1.212542
C      5.228869    0.763493    0.402190
C     -4.613009   -0.985848    1.737919
C     -4.553918    0.382637   -0.189979
C      0.426838    0.228391   -1.190878
C      1.473403    1.236271   -0.873378
C     -1.786501   -0.359270   -1.965628
C     -0.839194    0.834823   -1.795917
C      4.448472   -0.334303    0.616813
C     -3.993159   -0.589879    0.572694
C      3.032136   -0.306917    0.190350
C     -2.731804   -1.229680    0.175133
N      2.633157    0.727494   -0.334685
N     -2.028905   -1.030660   -0.804825
O      2.207057   -1.406174    0.381431
O     -2.273961   -2.233019    1.083500
H     -2.343965    2.309667   -1.259051
H     -1.719924    1.220630    0.087942
H     -0.786371    2.615911   -0.503752
H      8.113841   -0.409065    1.721769
H     -7.299250    1.003616    1.728699
H      6.649144   -2.365976    2.082773
H      7.180219    1.642747    0.619192
H     -6.254394   -0.762051    3.086398
H     -6.180112    1.725773   -0.385002
H      4.348777   -2.334950    1.395733
H      4.879878    1.673628   -0.067783
H     -4.184351   -1.770010    2.376544
H     -4.110241    0.736876   -1.120729
H      0.078798   -0.350681   -0.323870
H      0.820645   -0.448400   -1.960472
H      1.626058    1.841622   -1.825335
H      1.079698    2.031731   -0.163946
H     -2.643628   -0.106157   -2.641891
H     -1.164790   -1.049282   -2.663528
H     -0.607717    1.277220   -2.778740
H      1.799798   -1.864921   -0.446221
H     -1.423699   -2.703935    0.854272
