46

C     -4.714920   -2.545545   -1.187139
C     -4.047304   -2.370414    0.125799
C      8.152448    0.924318    1.327703
C     -6.417240    2.070264    0.215400
C      7.565683    1.712797    0.358288
C      7.380839   -0.053275    1.911016
C     -6.795431    0.741979    0.250666
C     -5.080826    2.400310    0.228903
C      6.231736    1.520401   -0.014672
C      6.062580   -0.239479    1.538821
C     -5.810135   -0.255831    0.299910
C     -4.119274    1.383006    0.278268
C      3.165903   -0.142591    1.121246
C      3.591996    0.559592   -1.067090
C      1.809735   -0.366117    0.795824
C      2.277993    0.349720   -1.405953
C      5.462606    0.539246    0.572965
C      4.071855    0.320675    0.200701
C     -4.477819    0.065231    0.313486
C      1.354741   -0.122980   -0.464975
C     -3.463049   -0.993565    0.360449
C     -1.074982   -0.562314   -0.016442
N      0.019957   -0.312085   -0.839963
O     -0.953474   -0.640397    1.204895
O     -2.374844   -0.740906   -0.507784
H     -4.074251   -3.200725   -1.850246
H     -5.640774   -3.140364   -1.043852
H     -5.003413   -1.616383   -1.709061
H     -4.742831   -2.558048    0.995350
H     -3.231055   -3.096653    0.230090
H      9.198484    1.082107    1.613877
H     -7.183596    2.863630    0.176558
H      8.162538    2.492082   -0.114277
H      7.835624   -0.671743    2.669122
H     -7.847393    0.495728    0.239630
H     -4.815104    3.441948    0.200745
H      5.773095    2.136230   -0.771947
H      5.453953   -1.019258    2.006934
H     -6.197853   -1.265014    0.328377
H     -3.090276    1.720605    0.286041
H      3.469628   -0.353420    2.139798
H      4.315732    0.926213   -1.790179
H      1.157001   -0.742864    1.582099
H      1.901962    0.534713   -2.389631
H     -3.047263   -1.006461    1.387634
H     -0.212980   -0.264363   -1.890256
