39

C     -3.134856    1.555253   -1.971788
C     -1.202608    2.436149    0.033377
C     -1.738902    1.005664   -1.857472
C     -3.547439   -1.021914    2.463066
C     -2.499926   -0.215862    2.815076
C     -3.840814   -1.205287    1.131789
C     -1.711314    0.434030    1.865435
C     -3.064672   -0.563614    0.157089
C      2.813994    0.038510    0.364301
C      2.843458   -1.884518   -0.996101
C      4.155686   -0.131665    0.609186
C      4.200148   -2.045056   -0.743332
C      2.121240   -0.846880   -0.454308
C     -2.015680    0.245704    0.519014
C      4.901868   -1.165629    0.073688
C      0.702239   -0.628723   -0.748933
C     -1.191701    0.966706   -0.486683
N      6.289269   -1.324319    0.308844
O     -0.032485   -1.427970   -1.360079
O      6.942851   -2.333112   -0.361118
O      6.958721   -0.628263    1.087279
O      0.116283    0.549973   -0.331033
H     -3.821090    0.886696   -2.568507
H     -3.589178    1.834279   -0.996591
H     -3.143591    2.525458   -2.555686
H     -2.213169    2.733571    0.289555
H     -0.536775    2.564570    0.889112
H     -0.742652    3.076931   -0.787032
H     -1.733417   -0.020509   -2.288994
H     -1.065068    1.686510   -2.455541
H     -4.184139   -1.540031    3.192017
H     -2.253618   -0.056580    3.868416
H     -4.659437   -1.831977    0.810033
H     -0.877992    1.062475    2.167934
H     -3.275327   -0.698799   -0.892930
H      2.224893    0.857602    0.780410
H      2.329355   -2.603616   -1.648831
H      4.690082    0.574379    1.259703
H      4.785763   -2.860134   -1.180366
