21

C      2.886305   -0.117627   -0.262941
C      2.222922    0.303829    0.852652
C      2.162599   -0.506222   -1.369045
C      0.830611    0.332263    0.849717
C      0.802427   -0.486760   -1.394542
C     -1.809723    1.367520    0.064059
C      0.129495   -0.055328   -0.252035
C     -1.352130   -0.024123   -0.242934
C     -1.831943   -1.048042    0.749380
Cl    -3.584064    1.448418    0.084611
F     -1.332650   -2.276897    0.337784
F     -1.327294   -0.813655    2.011828
F     -3.204514   -1.172835    0.758735
H      3.965893   -0.135652   -0.249664
H      2.774232    0.613782    1.733406
H      2.678418   -0.848197   -2.275714
H      0.374502    0.682529    1.775682
H      0.202990   -0.788135   -2.254566
H     -1.431146    1.722624    1.044650
H     -1.438676    2.092717   -0.688293
H     -1.718255   -0.290209   -1.272769
