42

C     -0.553854   -2.930673    1.041152
C      1.151066   -0.915879    1.572983
C      4.761292    2.296401   -0.882419
C      3.673698    2.325999   -1.727599
C      4.890052    1.171813   -0.061499
C     -3.520736    2.187189   -1.737731
C     -2.435367    1.474739   -2.192025
C     -3.428212   -0.498157    2.250344
C     -4.028520    1.857165   -0.493646
C     -3.999180    0.517884    1.517159
C      2.742887    1.308873   -1.780065
C      3.989664    0.131883   -0.076932
C     -1.876821    0.452972   -1.407279
C     -2.341216   -1.189810    1.762669
C     -0.629766   -1.673115    0.091196
C     -3.473109    0.838411    0.289493
C      2.904771    0.218964   -0.956470
C     -1.766943   -0.905306    0.518650
C     -2.389891    0.131837   -0.171072
N      0.608824   -0.951821    0.264180
O      2.566366   -2.402051   -0.605039
O      1.218530   -1.268564   -2.304136
S      1.768402   -1.139118   -0.944587
H      0.172822   -3.632362    0.556082
H     -1.537387   -3.381049    1.005270
H     -0.123460   -2.673769    1.999389
H      1.920426   -0.091956    1.577500
H      0.407616   -0.592159    2.352234
H      1.720795   -1.809151    1.890771
H      5.502749    3.086266   -0.828260
H      3.555618    3.189869   -2.372377
H      5.735181    1.097903    0.629311
H     -3.984196    2.985957   -2.314942
H     -2.003005    1.693508   -3.151392
H     -3.865026   -0.739265    3.234021
H     -4.882552    2.390428   -0.094706
H     -4.852421    1.088285    1.852931
H      1.893512    1.361172   -2.461282
H      4.092400   -0.745475    0.560399
H     -1.043460   -0.099552   -1.751877
H     -1.946970   -1.981914    2.401756
H     -0.594581   -2.186374   -0.851384
