24

C     -3.063882    0.228733   -0.579262
C     -1.182965   -1.553392    0.935671
C     -1.577592    0.377440   -0.605661
C      1.221089    0.982078    1.361463
C      1.269653   -0.474514   -0.485279
C      2.576850    1.213488    1.226715
C      2.618135   -0.263767   -0.643718
C     -0.909348   -0.100038    0.669819
C      0.542920    0.135068    0.509391
C      3.284832    0.591904    0.222843
I      5.350268    0.913011   -0.021967
H     -3.530932    1.187967   -0.329768
H     -3.306811   -0.543337    0.191936
H     -3.472244   -0.174149   -1.546771
H     -1.287573   -2.147891    0.008033
H     -2.123328   -1.644887    1.517112
H     -0.371401   -1.927099    1.590999
H     -1.336049    1.447739   -0.770622
H     -1.198756   -0.242220   -1.463581
H      0.730162    1.506134    2.174642
H      0.735594   -1.137242   -1.150846
H      3.110928    1.875475    1.891306
H      3.184700   -0.739474   -1.419839
H     -1.264251    0.488975    1.522455
