48

C      4.441703   -2.112465    0.211387
C      2.846760   -0.305515    2.048237
C      1.216811    3.231077   -0.669586
C     -1.222324    3.317013   -0.692295
C      0.067636    2.340387   -2.621548
C     -3.532770   -0.957060   -0.709926
C     -2.732676   -2.881150    0.496717
C     -3.308572   -0.819058    1.726740
C      3.082232   -1.587884   -0.080999
C      1.010350    0.515234   -0.006467
C     -0.218565   -1.380039    0.777166
C     -1.301739    0.454138   -0.312694
C      2.216518   -1.324183    1.117609
C      0.965179   -0.716906    0.613224
C     -0.112784    1.143025   -0.489670
C     -1.347778   -0.792507    0.313463
C     -0.036627    2.477348   -1.118444
C     -2.682614   -1.399553    0.465414
H      4.539645   -3.189653   -0.092088
H      5.202786   -1.569771   -0.419112
H      4.763075   -2.047342    1.251376
H      3.324388    0.530652    1.523808
H      1.980172    0.169892    2.607157
H      3.463013   -0.797926    2.810763
H      0.917700    4.310439   -0.580785
H      1.982566    3.213198   -1.450989
H      1.533651    2.929419    0.337939
H     -1.890859    3.516877   -1.556624
H     -1.794621    2.763689    0.078131
H     -0.912601    4.275719   -0.193930
H     -0.763792    1.791149   -3.075058
H      1.061686    1.836867   -2.818775
H      0.183944    3.377986   -3.014673
H     -4.037132    0.007735   -0.492896
H     -4.335769   -1.735486   -0.893153
H     -2.947504   -0.907815   -1.650106
H     -3.671584   -3.186253    1.066083
H     -1.924352   -3.416071    0.977450
H     -2.878123   -3.352319   -0.504955
H     -4.366253   -0.565701    1.520639
H     -2.744191    0.108272    2.026061
H     -3.254833   -1.563364    2.524375
H      3.124763   -0.682957   -0.741432
H      2.538599   -2.358382   -0.702741
H      1.969825    1.017169   -0.118312
H     -0.265649   -2.360175    1.271927
H     -2.211547    0.928381   -0.684553
H      2.062260   -2.246132    1.660510
