30

C     -2.140194   -0.256970   -1.821873
C      4.252229    0.963170    0.439448
C      3.741359   -0.124254    1.096847
C      3.555568    1.543475   -0.607482
C      2.531307   -0.662716    0.735035
C      2.341880    1.003509   -0.970490
C     -0.607888    0.028023    0.048520
C      0.494927   -0.653938   -0.735709
C     -3.107712    0.015230    0.394713
C     -3.075226   -0.146671    1.879564
C     -1.931256   -0.507803   -0.341143
C      1.821884   -0.087532   -0.316234
Br    -2.956742   -2.012527    2.390039
H     -3.227798   -0.454395   -2.019249
H     -1.572063   -0.937047   -2.459732
H     -1.988200    0.813520   -2.060145
H      5.199350    1.371079    0.735405
H      4.265817   -0.608615    1.929763
H      3.993719    2.400950   -1.100498
H      2.076671   -1.520764    1.216754
H      1.802773    1.468223   -1.795358
H     -0.407872   -0.233677    1.129432
H     -0.459649    1.094741   -0.042059
H      0.414028   -0.436963   -1.827659
H      0.530892   -1.736116   -0.548649
H     -3.249143    1.095632    0.178313
H     -4.030887   -0.487492    0.035617
H     -4.050074    0.214179    2.274499
H     -2.309167    0.469691    2.384634
H     -1.908534   -1.613943   -0.222307
