27

C      0.660574   -1.682519    0.675607
C     -3.814950    0.155164   -0.392901
C     -3.357278    0.665290    0.815912
C     -2.936939   -0.467373   -1.249204
C      2.606606    0.272186   -0.030754
C      1.170510    0.438315   -0.415884
C     -2.023949    0.542744    1.147307
C     -1.618405   -0.579755   -0.904031
C      3.502033    0.916024   -1.062614
C      0.281408   -0.216456    0.634884
C     -1.150352   -0.076941    0.294752
Br     3.125026    2.811623   -1.215773
H      0.945111   -1.973180   -0.360323
H     -0.180350   -2.301983    1.057006
H      1.562016   -1.784361    1.325689
H     -4.874731    0.245030   -0.671265
H     -4.051574    1.163571    1.504912
H     -3.284690   -0.874703   -2.206802
H      2.853199    0.716912    0.948091
H      2.845635   -0.808296   -0.021150
H      1.019157   -0.092657   -1.384022
H      0.918276    1.510325   -0.546824
H     -1.669096    0.949442    2.106711
H     -0.927546   -1.080636   -1.599697
H      4.562204    0.839617   -0.720573
H      3.362403    0.474798   -2.066730
H      0.475704    0.237820    1.618821
