27

C     -0.769727   -1.928054   -0.553694
C     -1.480368    1.478200    1.000296
C     -2.875930   -0.521494    0.639566
C      3.403478    0.905013   -0.232701
C      3.001540    0.470929    1.013386
C      2.564656    0.819764   -1.308996
C      1.739681   -0.046684    1.138940
C      1.292552    0.285642   -1.127407
C     -0.473182   -0.732434    0.355062
C      0.843319   -0.161722    0.096236
C     -1.619508    0.229710    0.167362
Br    -1.911970    0.719846   -1.668395
H      0.206844   -2.187159   -1.035134
H     -1.546072   -1.689964   -1.303794
H     -1.109209   -2.752880    0.083772
H     -1.613250    2.405262    0.406610
H     -2.217949    1.503045    1.833207
H     -0.480261    1.550311    1.478968
H     -3.090307   -0.275235    1.716632
H     -3.725298   -0.286458   -0.016745
H     -2.721446   -1.618990    0.605413
H      4.392109    1.317202   -0.360752
H      3.700378    0.558657    1.835118
H      2.903360    1.165733   -2.270242
H      1.460340   -0.380840    2.150418
H      0.646923    0.220875   -1.965723
H     -0.520703   -1.048274    1.418657
