42

C      3.459670    0.201581   -1.561059
C     -7.659819    0.917422    0.307725
C     -7.264030    0.330852   -0.884176
C     -6.721845    1.126349    1.293994
C     -5.926936   -0.035082   -1.060082
C     -5.386401    0.750665    1.093960
C      0.724153   -1.317797   -0.667810
C      0.990180   -0.411319    1.499826
C     -0.608565   -1.005483   -0.611836
C     -0.345638   -0.112915    1.523209
C      2.986678   -1.343824    0.355081
C      3.828655   -0.193569   -0.172952
C      1.533631   -1.019052    0.396282
C     -4.987143    0.170857   -0.079964
C     -1.205844   -0.401869    0.456084
C     -3.608258   -0.227855   -0.309633
C      6.254580    0.082903   -0.031836
C      6.344022    1.533591    0.075443
F      6.926079    1.912328    1.276145
F      7.229752    1.996986   -0.910593
F      5.140166    2.134998   -0.128387
N      5.201106   -0.572683   -0.131158
N     -2.548918   -0.043262    0.612435
O     -3.333689   -0.780353   -1.414049
O      7.467810   -0.630856   -0.021021
H      3.111493   -0.689072   -2.164188
H      4.403250    0.502642   -2.108077
H      2.677294    0.957779   -1.638704
H     -8.686654    1.197202    0.439900
H     -8.009883    0.166002   -1.665549
H     -7.028209    1.582665    2.222004
H     -5.694786   -0.486598   -2.015383
H     -4.736467    0.956001    1.922657
H      1.110016   -1.809408   -1.575161
H      1.610471   -0.162226    2.360883
H     -1.196324   -1.263915   -1.478337
H     -0.728365    0.371460    2.427126
H      3.143951   -2.216704   -0.299228
H      3.343812   -1.621911    1.367462
H      3.644572    0.638171    0.568439
H     -2.875393    0.432265    1.517804
H      7.421826   -1.616967    0.198150
