27

C     -1.222390   -1.344023   -1.036529
C     -1.621231    1.117398   -0.802353
C     -2.835871   -0.483887    0.566012
C      3.600268    0.584673   -0.080907
C      3.019879   -0.618612   -0.368111
C      2.845303    1.551783    0.557007
C      1.706564   -0.858109   -0.026074
C      1.528741    1.284040    0.888754
C      0.913537    0.075677    0.611039
C     -0.474753   -0.117921    0.989982
C     -1.480118   -0.208491   -0.103193
Br    -0.669494   -1.691731    2.111165
H     -2.136387   -1.589039   -1.660631
H     -1.068501   -2.270729   -0.444857
H     -0.442325   -1.137353   -1.784487
H     -2.154565    1.007909   -1.786189
H     -2.240123    1.826364   -0.207391
H     -0.641488    1.632042   -0.953754
H     -2.949400    0.081218    1.494155
H     -2.912210   -1.570565    0.834515
H     -3.672026   -0.290854   -0.138995
H      4.617896    0.830670   -0.321811
H      3.603799   -1.368983   -0.862455
H      3.249899    2.521705    0.809658
H      1.261861   -1.801794   -0.251053
H      0.963822    2.071544    1.391554
H     -0.790689    0.767070    1.619859
