40

C     -1.976100   -2.647504   -0.987564
C     -1.667209    3.326467    2.059251
C     -2.178815   -2.022981   -2.325236
C     -1.308479    1.915164    1.643951
C     -1.396525   -0.800568   -2.597990
C      4.450078   -1.712633    1.641955
C      4.665788   -0.440542    1.145932
C      3.183078   -2.248923    1.625366
C     -1.591832    1.784342    0.187723
C      3.588669    0.286180    0.632202
C      2.131727   -1.499785    1.107108
C     -1.581165    0.394768   -1.771777
C      2.317868   -0.232797    0.607568
C     -1.257297    0.375500   -0.331920
C      1.161996    0.513445    0.070485
N      0.028882    0.001845    0.071231
O      1.350422    1.789377   -0.435130
H     -1.988364   -3.781040   -1.053119
H     -1.007248   -2.414208   -0.519094
H     -2.802566   -2.429833   -0.268378
H     -1.950981    3.395097    3.125034
H     -0.795119    3.981466    1.831009
H     -2.503406    3.713111    1.426961
H     -1.923118   -2.835628   -3.081360
H     -3.288901   -1.869903   -2.540155
H     -1.893589    1.210078    2.267340
H     -0.228636    1.761579    1.875046
H     -1.647466   -0.487624   -3.667972
H     -0.292616   -1.045706   -2.697351
H      5.291955   -2.282902    2.044442
H      5.664754   -0.029757    1.164101
H      3.022876   -3.244074    2.015076
H     -1.095300    2.555936   -0.380470
H     -2.701081    1.945607    0.053504
H      3.778399    1.277495    0.249819
H      1.142723   -1.936574    1.101828
H     -2.674022    0.722431   -1.892800
H     -1.035408    1.250004   -2.242326
H     -1.989797   -0.298738    0.211808
H      0.995826    2.061829   -1.366097
