36

C     -1.949385   -2.201979    0.820662
C     -2.430209    1.416781   -0.320905
C     -2.578490    0.536662    1.932327
C     -4.132740   -0.239301    0.210021
C      2.640593   -0.072976   -1.931549
C      2.468437    0.243474    0.418295
C      3.955037    0.274343   -1.918059
C      3.813630    0.597554    0.423231
C     -1.739073   -0.911057    0.067702
C      1.887683   -0.093499   -0.780034
C      4.575168    0.619548   -0.733445
C      0.489465   -0.473219   -0.860163
C     -2.712308    0.161966    0.481081
N     -0.364863   -0.518171    0.270357
N      5.943932    0.987848   -0.675961
O      0.015346   -0.779942   -2.009505
O      6.655518    0.993998   -1.850589
O      6.460186    1.288787    0.399142
H     -3.001627   -2.461539    0.971441
H     -1.499680   -3.032400    0.221653
H     -1.366965   -2.189392    1.778843
H     -1.378151    1.711078   -0.107330
H     -3.074757    2.247507    0.052694
H     -2.527985    1.270986   -1.396049
H     -2.304951   -0.325120    2.574010
H     -1.876539    1.396700    2.051561
H     -3.572692    0.900483    2.275259
H     -4.653008   -0.524130    1.147681
H     -4.104942   -1.077792   -0.520765
H     -4.697785    0.577557   -0.239352
H      2.176296   -0.342823   -2.892581
H      1.912455    0.241171    1.352501
H      4.578823    0.301139   -2.808391
H      4.285848    0.867778    1.373124
H     -1.888988   -1.120338   -1.002532
H     -0.003283   -0.271681    1.225625
