44

C      0.870868   -2.755577   -1.300429
C     -1.526975   -3.115751   -1.064082
C      6.364791    0.619759    1.319115
C     -6.281613    1.556526    0.809041
C      5.558147   -0.494015    1.166617
C      5.906116    1.864360    0.948321
C     -5.333493    1.809937    1.759947
C     -5.913027    0.895216   -0.343190
C      4.287838   -0.365827    0.641740
C      4.629978    1.953821    0.426983
C     -4.032633    1.403569    1.554275
C     -4.613745    0.497275   -0.532718
C      2.019020    2.335997   -0.669874
C     -0.377419   -2.159790   -0.716121
C      3.813658    0.873961    0.265503
C     -3.626908    0.740800    0.416491
C      2.438662    1.020034   -0.303724
C     -0.677272   -0.788865   -1.268238
C     -2.246489    0.318408    0.215944
C      0.452339    0.105080   -0.955618
N      1.623006    0.061134   -0.483157
N     -1.949067   -0.287269   -0.858125
O     -1.336695    0.609450    1.224335
S      0.325560    1.891907   -1.276508
H      1.789336   -2.446314   -0.761684
H      1.007987   -2.500995   -2.371245
H      0.759928   -3.878827   -1.270413
H     -1.293855   -3.545735   -2.066467
H     -1.614924   -3.898478   -0.294185
H     -2.438056   -2.506819   -1.186112
H      7.373398    0.526343    1.734590
H     -7.334392    1.858945    0.922518
H      5.952468   -1.474051    1.471777
H      6.474291    2.775402    1.036593
H     -5.646168    2.333134    2.661683
H     -6.657088    0.693861   -1.094412
H      3.640664   -1.235340    0.515749
H      4.301416    2.966702    0.143019
H     -3.292916    1.620600    2.334862
H     -4.268646   -0.029940   -1.427344
H      2.437616    3.239434   -0.640037
H     -0.309624   -2.181038    0.390145
H     -0.738165   -0.928365   -2.388932
H     -0.517917    0.021339    1.313371
