44

C      1.783927    3.034137   -0.200846
C     -0.589675    3.067793   -0.766939
C     -6.680429   -1.385774    0.650260
C      6.189553   -2.035768    0.336275
C     -5.797081   -0.576180    1.346279
C     -6.272661   -2.001641   -0.504074
C      5.232610   -1.993194   -0.656804
C      5.989663   -1.348601    1.513700
C     -4.512000   -0.408229    0.853022
C     -4.982910   -1.809965   -0.964661
C      4.066317   -1.259010   -0.474059
C      4.824598   -0.633556    1.658757
C     -2.292819   -1.435714   -1.963346
C      0.645889    2.229891   -0.793917
C     -4.081504   -1.015659   -0.301887
C      3.854584   -0.575804    0.681918
C     -2.708455   -0.809024   -0.788333
C      0.495268    0.912453   -0.073581
C      2.605082    0.196111    0.847089
C     -0.619091    0.101851   -0.639095
N     -1.846659   -0.074200   -0.191302
N      1.736382    0.227358   -0.070569
O      2.449803    0.867986    2.044458
S     -0.619280   -0.870199   -2.088506
H      2.733213    2.433274   -0.196263
H      1.909188    4.005789   -0.679101
H      1.526497    3.179498    0.880353
H     -1.250337    2.899681   -1.641352
H     -1.183409    2.987777    0.153160
H     -0.270494    4.142190   -0.842542
H     -7.686052   -1.507024    1.051436
H      7.085821   -2.623335    0.148132
H     -6.147611   -0.106554    2.249421
H     -6.980916   -2.625196   -1.024004
H      5.392442   -2.534353   -1.581323
H      6.755119   -1.399338    2.274001
H     -3.855191    0.230591    1.425493
H     -4.709219   -2.317680   -1.880143
H      3.312037   -1.223349   -1.252526
H      4.672756   -0.098684    2.579470
H     -2.852452   -2.116454   -2.654595
H      0.918609    2.038198   -1.864314
H      0.193731    1.146686    0.964422
H      1.565155    1.083222    2.436438
