44

C     -0.953479   -0.113405    2.210901
C     -3.129353   -0.615028    0.217280
C      5.551805   -0.862220   -0.851829
C     -1.786906    3.888219   -0.593121
C      4.472492   -1.681310   -0.972386
C      5.348002    0.400123   -0.298631
C     -0.856694    3.140251   -1.313452
C     -2.350285    3.357948    0.531510
C      3.195101   -1.278800   -0.558447
C      4.089307    0.789310    0.106880
C     -0.516137    1.872471   -0.883031
C     -2.007251    2.079803    0.964964
C     -2.086332   -2.906789   -1.957743
C     -2.340250   -3.590215   -0.675717
C      2.986435   -0.037438   -0.012280
C     -1.089670    1.327152    0.264363
C      1.660121    0.384446    0.422743
C     -0.709101   -0.064412    0.720343
C     -1.693906   -0.972092    0.036251
N      0.637943   -0.354795    0.334386
O      1.505077    1.671003    0.964203
S     -1.271705   -1.324372   -1.694603
S     -1.521963   -2.697074    0.656014
H     -1.965525   -0.539957    2.412202
H     -0.229389   -0.821984    2.692982
H     -0.953829    0.865062    2.713729
H     -3.526062   -0.829714    1.205827
H     -3.701646   -1.301936   -0.483913
H     -3.352200    0.394922   -0.186741
H      6.544517   -1.169639   -1.169059
H     -2.029466    4.884396   -0.967948
H      4.620762   -2.676951   -1.407162
H      6.210053    1.035937   -0.208937
H     -0.374676    3.511153   -2.211956
H     -3.082749    3.945447    1.097627
H      2.361586   -1.953954   -0.669001
H      3.902933    1.774630    0.545501
H      0.194836    1.267950   -1.407739
H     -2.501628    1.740408    1.847417
H     -3.075407   -2.673125   -2.443407
H     -1.549387   -3.526292   -2.703985
H     -3.433799   -3.603056   -0.411572
H     -2.036089   -4.651943   -0.751518
H      0.843912    1.915871    1.674411
