36

C     -1.987194   -1.362085   -2.008048
C     -2.739913    1.332644   -1.097015
C     -2.483613    0.593580    1.214059
C     -4.106703   -0.567005   -0.193712
C      2.930923   -0.930603    1.142643
C      2.413543    0.691777   -0.466270
C      4.234801   -0.472820    1.221130
C      3.707080    1.169437   -0.408962
C     -1.725316   -0.910121   -0.584849
C      2.004679   -0.355288    0.299319
C      4.634571    0.584682    0.443076
C      0.659114   -0.894204    0.276482
C     -2.763426    0.126383   -0.216626
N     -0.377730   -0.378897   -0.554538
N      5.962388    1.040342    0.532236
O      0.332866   -1.865533    1.005777
O      6.363244    2.097032   -0.244690
O      6.784340    0.509942    1.297988
H     -2.910779   -0.916396   -2.432378
H     -2.020909   -2.470503   -2.028004
H     -1.166297   -1.070652   -2.701777
H     -2.976034    2.281396   -0.542577
H     -3.597391    1.223477   -1.821043
H     -1.806891    1.507413   -1.630984
H     -2.456926   -0.264079    1.916706
H     -1.550883    1.210030    1.257600
H     -3.358396    1.215186    1.500848
H     -4.244690   -1.017953    0.817819
H     -4.932503    0.177529   -0.360252
H     -4.182330   -1.397691   -0.911687
H      2.661120   -1.769714    1.777440
H      1.746432    1.193984   -1.150505
H      4.896764   -0.978566    1.906550
H      4.060322    2.001825   -1.007234
H     -1.861980   -1.758095    0.105203
H     -0.142284    0.423544   -1.169614
