44

C     -0.982240   -0.494638   -1.533311
C     -1.603895   -0.967992    2.170411
C      5.430069    0.627981   -0.818043
C     -2.307645    3.899106    0.185477
C      5.386130   -0.024019    0.385986
C      4.268995    0.935183   -1.470916
C     -2.949404    2.888257   -0.505013
C     -1.132683    3.601632    0.806516
C      4.162835   -0.354417    0.914379
C      3.034255    0.603078   -0.942425
C     -2.443897    1.616886   -0.583998
C     -0.623493    2.327252    0.730946
C     -3.282097   -2.931846   -0.729834
C     -1.885341   -3.398520   -1.023811
C      2.983939   -0.044094    0.253867
C     -1.229924    1.293797    0.053294
C      1.648873   -0.421836    0.778506
C     -0.713069   -0.091386   -0.033808
C     -1.552484   -1.100738    0.703029
N      0.655007   -0.136510    0.184617
O      1.712084   -1.097243    1.970150
S     -3.184373   -1.290736    0.003867
S     -0.805620   -2.736233    0.235349
H     -1.987481   -0.869526   -1.624936
H     -0.816869    0.442966   -2.131170
H     -0.229098   -1.244637   -1.772852
H     -0.955462   -0.133986    2.526577
H     -1.252075   -1.927534    2.633314
H     -2.646597   -0.844515    2.561319
H      6.352920    0.923437   -1.298296
H     -2.693335    4.908375    0.258537
H      6.314198   -0.256738    0.880136
H      4.259307    1.449162   -2.432936
H     -3.904525    3.170214   -0.990247
H     -0.613732    4.383944    1.347710
H      4.062520   -0.871104    1.865480
H      2.146749    0.858990   -1.480576
H     -3.000775    0.892684   -1.138877
H      0.314860    2.132021    1.250858
H     -3.744872   -3.686013   -0.068906
H     -3.816055   -2.892027   -1.707625
H     -1.565901   -3.173423   -2.053829
H     -1.857579   -4.530471   -0.940483
H      1.047780   -1.434782    2.581569
