46

C      7.915132    0.578744   -0.608985
C     -7.980556   -0.176428   -1.078185
C      7.265085    0.256610   -1.768856
C      7.218578    0.593460    0.587237
C     -7.323431   -1.388169   -1.034959
C     -7.281478    0.943940   -0.680016
C      0.773803   -0.546870    1.109154
C      5.900821   -0.051062   -1.706484
C      5.874837    0.287288    0.627519
C     -6.015674   -1.512522   -0.614621
C     -5.973636    0.816469   -0.260106
C      0.417240    0.641066    0.268745
C      2.266983   -0.424323    1.485203
C     -1.932322    0.586538    1.061110
C      5.212164   -0.037899   -0.533227
C     -5.305414   -0.388636   -0.212180
C     -1.032629    0.591088   -0.144582
C      3.765691   -0.376015   -0.545964
C     -3.922280   -0.498432    0.235559
N      3.057696   -0.398142    0.418268
N     -3.287370    0.547928    0.601084
O     -1.281693    1.704648   -0.961143
O      3.250247   -0.686424   -1.836746
O     -3.280298   -1.717973    0.272832
H      8.988338    0.823527   -0.639593
H     -9.017312   -0.093256   -1.413685
H      7.764697    0.230314   -2.733398
H      7.764703    0.850781    1.471404
H     -7.849882   -2.267362   -1.340029
H     -7.788253    1.901796   -0.710013
H      0.243327   -0.541665    2.071413
H      0.638605   -1.503748    0.608510
H      5.426758   -0.301734   -2.659146
H      5.317040    0.295675    1.561971
H     -5.520320   -2.476943   -0.589485
H     -5.405989    1.692779    0.058358
H      1.008336    0.695795   -0.670171
H      0.641710    1.602076    0.800863
H      2.328017    0.534183    2.101122
H      2.466022   -1.206879    2.279281
H     -1.731735   -0.302944    1.689107
H     -1.714229    1.484926    1.673355
H     -1.177736   -0.326186   -0.750789
H     -0.584772    2.391185   -0.836168
H      2.266853   -0.923975   -1.916495
H     -2.365677   -1.903229    0.608527
