54

C     -0.152134    6.437576    1.296920
C     -6.466214   -3.637409   -1.957074
C      4.207819   -3.555777    1.552972
C      0.553611    5.758105    2.267674
C     -0.509239    5.774712    0.138312
C     -6.385551   -2.311528   -1.524790
C     -5.351834   -4.434550   -2.029469
C      3.412692   -3.181541    0.502050
C      5.043378   -2.584948    2.050631
C      0.873307    4.433932    2.033424
C     -0.184359    4.448158   -0.087155
C     -5.173391   -1.771483   -1.158534
C     -4.146911   -3.894792   -1.664509
C      3.449480   -1.894443   -0.029310
C      5.095873   -1.313229    1.543731
C     -0.439649   -0.221536   -1.208705
C     -1.412323   -0.228700   -0.057310
C      1.894274    0.453008   -1.815982
C      0.519569    3.775084    0.884145
C     -4.046209   -2.589148   -1.235349
C      4.276877   -0.940183    0.467166
C      0.844206    0.405887   -0.699569
C      0.875078    2.355514    0.660350
C     -2.748902   -2.078984   -0.863653
C      4.332048    0.393418   -0.041105
N      0.531975    1.784670   -0.413822
O      1.581112    1.622768    1.603488
O     -1.745134   -2.808453   -0.937710
O      5.300842    1.110687    0.531113
O     -2.627027   -0.784912   -0.427825
S      3.367109    1.168330   -1.225137
H     -0.432605    7.479166    1.423011
H     -7.430998   -4.061402   -2.246661
H      4.181234   -4.570395    1.974451
H      0.853182    6.250907    3.197327
H     -1.070853    6.330879   -0.623981
H     -7.296870   -1.702726   -1.479447
H     -5.403639   -5.454891   -2.360343
H      2.720419   -3.900173    0.050775
H      5.688805   -2.863861    2.892370
H      1.435705    3.855346    2.782253
H     -0.457637    3.917763   -0.988641
H     -5.086760   -0.731017   -0.815627
H     -3.257356   -4.538159   -1.724348
H      2.774882   -1.701231   -0.878698
H      5.790175   -0.587566    1.994069
H     -0.280933   -1.185806   -1.682186
H     -0.901631    0.444711   -1.992742
H     -0.941484   -0.762934    0.819128
H     -1.536269    0.818006    0.296535
H      1.930030   -0.478030   -2.391362
H      1.460653    1.199832   -2.605164
H      1.248339   -0.164152    0.120496
H      1.243241    0.715497    1.912901
