49

C     -1.222337    6.525880   -0.960534
C     -2.832036   -1.014504    1.076820
C     -2.652805   -2.396482   -0.819885
C      3.805264   -1.696511   -1.200323
C      3.324844   -1.153201    1.034008
C     -3.660515   -1.954929    1.679875
C     -3.472170   -3.326958   -0.224152
C      4.555282   -2.793105   -0.779632
C      4.061316   -2.231909    1.478877
C     -1.004775    3.187312   -1.123725
C     -1.463510    3.826138    0.149977
C      1.017958    2.213839   -0.053234
C     -2.306996   -1.202768   -0.178844
C      3.176492   -0.856498   -0.305555
C     -0.216234    1.927404   -0.880648
C     -3.998595   -3.129203    1.045101
C      4.685700   -3.065496    0.579441
C     -1.436100   -0.234208   -0.834085
C      2.388833    0.294608   -0.750919
N     -1.082579    0.970114   -0.222695
N     -4.843402   -4.095304    1.652625
N      5.450370   -4.181900    1.003441
O     -0.973476   -0.465716   -1.989100
O      2.245096    0.570359   -1.956076
O     -5.186963   -5.263530    1.034776
O     -5.284251   -3.867005    2.787129
O      6.076587   -5.017067    0.117750
O      5.553790   -4.407725    2.222723
O      1.795710    1.086920    0.190482
S     -2.408634    5.346919   -0.223996
H     -0.573789    6.974444   -0.162366
H     -0.635699    6.077437   -1.766522
H     -1.840188    7.344672   -1.409204
H     -2.597074   -0.106397    1.620512
H     -2.243500   -2.554671   -1.811659
H      3.712326   -1.496058   -2.257810
H      2.831941   -0.495708    1.757192
H     -4.061027   -1.775940    2.677454
H     -3.742199   -4.262725   -0.729173
H      5.052660   -3.459347   -1.460678
H      4.172273   -2.457957    2.545445
H     -1.905883    2.955834   -1.723783
H     -0.415373    3.945683   -1.692026
H     -0.593233    4.175129    0.770032
H     -2.134702    3.155675    0.726663
H      1.593263    3.070075   -0.457137
H      0.644702    2.568248    0.952384
H      0.060266    1.491774   -1.868273
H     -1.416629    1.254359    0.739327
