49

C     -0.803077    4.607171   -0.304865
C      4.464879   -1.359423    0.739284
C      4.748913   -2.357783   -1.380567
C     -4.555731   -0.939958    0.090109
C     -4.986599    1.372151    0.205896
C      5.743575   -1.736538    1.136286
C      6.013075   -2.745829   -1.024776
C     -5.920936   -1.193953   -0.056763
C     -6.358291    1.142690    0.060138
C      0.457069    1.457514   -0.864517
C      0.899994    2.257885    0.328359
C     -0.432012   -0.453565    0.523481
C      3.963860   -1.660827   -0.500545
C     -4.085016    0.342346    0.221777
C      0.455040    0.001550   -0.561060
C      6.508283   -2.433030    0.236840
C     -6.826187   -0.157728   -0.072330
C      2.630073   -1.257481   -0.897450
C     -2.640877    0.651715    0.385424
N      1.824689   -0.389941   -0.121634
N      7.811188   -2.830487    0.611114
N     -8.195143   -0.429510   -0.219984
O      2.154108   -1.704305   -2.000865
O     -2.269613    1.839356    0.497896
O      8.285023   -2.522090    1.846278
O      8.508636   -3.467610   -0.218943
O     -8.653793   -1.716893   -0.350293
O     -8.999977    0.520681   -0.231187
O     -1.753406   -0.329726    0.412274
S      0.891189    4.034928   -0.029131
H     -1.323467    4.574642    0.679150
H     -0.754421    5.636361   -0.719813
H     -1.306757    3.913099   -1.027803
H      3.899074   -0.810431    1.488517
H      4.419606   -2.632587   -2.380739
H     -3.843245   -1.751221    0.102414
H     -4.601430    2.372670    0.310349
H      6.111503   -1.477178    2.139303
H      6.654446   -3.298235   -1.702710
H     -6.285496   -2.196129   -0.159345
H     -7.041158    1.981032    0.052412
H     -0.475761    1.769733   -1.316991
H      1.227861    1.607556   -1.707380
H      0.279870    2.069479    1.196875
H      1.972440    1.967531    0.499256
H     -0.214813   -1.587203    0.627565
H     -0.028967   -0.105215    1.545765
H      0.237638   -0.553033   -1.501129
H      2.194143   -0.022184    0.769249
