40

C     -3.250896   -2.494003    0.040834
C     -1.510974   -1.108215    1.996873
C     -1.771238   -2.281889   -0.133322
C     -3.456081    2.225807   -1.174268
C     -2.645160    1.419088   -1.954440
C     -3.538269    1.949624    0.169593
C     -1.952855    0.380291   -1.383944
C     -2.842732    0.905696    0.744017
C      2.961791   -0.515039   -0.545680
C      2.902264    1.619993    0.464030
C      4.286081   -0.288388   -0.897659
C      4.193277    1.822544    0.112377
C      2.269636    0.436284    0.133912
C     -2.041971    0.107632   -0.021836
C      4.924536    0.888031   -0.572898
C      0.890658    0.255832    0.523413
C     -1.256487   -1.047260    0.538089
N      0.111456   -0.862050    0.154370
N      6.295609    1.118187   -0.939584
O      0.334175    1.124112    1.226152
O      6.963060    0.147997   -1.618482
O      6.805167    2.201097   -0.614941
H     -3.425563   -3.040185    0.985309
H     -3.573114   -3.170761   -0.780296
H     -3.837400   -1.570272   -0.060085
H     -1.026122   -2.020151    2.453272
H     -2.601405   -1.273995    2.142329
H     -1.266154   -0.202821    2.560178
H     -1.551333   -2.272790   -1.238141
H     -1.270337   -3.202263    0.245425
H     -4.016809    3.051707   -1.581751
H     -2.591738    1.650476   -3.009945
H     -4.171804    2.567779    0.820171
H     -1.311264   -0.259847   -1.995112
H     -2.923906    0.710108    1.799603
H      2.495075   -1.463307   -0.822771
H      2.350478    2.379504    1.006156
H      4.821048   -1.061152   -1.439801
H      4.668875    2.767151    0.385688
H      0.560426   -1.594553   -0.432327
