37

C     -3.706457   -1.274625   -0.846251
C     -2.360945    2.683460    0.358100
C     -2.378224   -1.798660   -0.418829
C     -0.944529    2.218011    0.643716
C     -1.993420   -1.433299    0.975540
C      5.223016   -1.174224    0.059334
C      4.193442   -1.539749    0.926018
C      4.994143   -0.265667   -0.942096
C      2.942052   -0.989740    0.779939
C      3.720939    0.262932   -1.053337
C     -1.913225    0.058727    1.193479
C      2.689290   -0.078152   -0.215277
C     -0.909792    0.721488    0.308155
C      1.353144    0.501999   -0.362717
N      0.410212    0.176021    0.420408
O      1.121064    1.425794   -1.381228
H     -4.067109   -1.926448   -1.685926
H     -4.484380   -1.320475   -0.062762
H     -3.651004   -0.248491   -1.295732
H     -2.321784    3.739034    0.018186
H     -2.940724    2.587532    1.300287
H     -2.812098    2.032143   -0.410125
H     -1.598330   -1.410775   -1.112303
H     -2.395400   -2.905194   -0.486593
H     -0.189662    2.783420    0.084120
H     -0.739152    2.338471    1.719012
H     -0.957940   -1.827587    1.146994
H     -2.634780   -1.889473    1.743810
H      6.198657   -1.625868    0.200785
H      4.377240   -2.264654    1.724535
H      5.797214   -0.000069   -1.594569
H      2.157871   -1.288284    1.464356
H      3.524324    0.983584   -1.841424
H     -2.921536    0.467935    0.916753
H     -1.758151    0.277829    2.267885
H     -1.246001    0.564715   -0.746919
H      0.222038    1.438338   -1.860025
