43

C      4.485074    0.803127    0.547615
C      0.825405    1.200784    1.669484
C      4.043022    0.929339   -0.873889
C     -0.279790    0.236871    1.790825
C      3.424029   -0.248647   -1.512012
C      2.156699   -0.793583   -0.991260
C     -5.919019    0.489785   -0.098539
C     -5.060792    0.060750    0.867250
C     -5.437037    0.716528   -1.350579
C      2.111073   -1.304540    0.406982
C     -3.715358   -0.138954    0.566926
C     -4.088248    0.510918   -1.630898
C      0.794263   -1.841026    0.808963
C     -3.180880    0.076721   -0.684259
C     -0.387386   -0.894407    0.827492
C     -1.789929   -0.113907   -1.055441
N     -0.809430   -0.484708   -0.409945
O     -1.542648    0.200246   -2.456854
H      5.433822    1.436600    0.711973
H      3.761480    1.306712    1.222780
H      4.800652   -0.191276    0.862356
H      0.452161    2.236406    1.923944
H      1.560502    0.957941    2.502420
H      1.339832    1.309820    0.729935
H      3.410436    1.849804   -0.997369
H      4.990289    1.158264   -1.462489
H     -0.377549   -0.154644    2.857705
H     -1.233550    0.850370    1.699367
H      3.211679    0.035387   -2.599273
H      4.213628   -1.049243   -1.639683
H      1.361165   -0.008690   -1.195065
H      1.884284   -1.655824   -1.693647
H     -6.966368    0.653011    0.105429
H     -5.440886   -0.119300    1.859368
H     -6.120917    1.057128   -2.115277
H      2.571021   -0.666367    1.175396
H      2.804690   -2.219620    0.400165
H     -3.106877   -0.471035    1.358670
H     -3.804470    0.716821   -2.645871
H      0.876382   -2.258617    1.834350
H      0.521793   -2.673953    0.139995
H     -1.199797   -1.584433    1.265455
H     -0.572449    0.079438   -2.763014
