40

C     -2.987680   -1.958741    1.653245
C     -1.705139   -1.644942   -0.903088
C     -1.585497   -1.480957    1.498947
C     -3.749950    2.698329   -0.324603
C     -2.970519    2.239901   -1.363910
C     -3.791637    2.077706    0.911592
C     -2.219976    1.115247   -1.116983
C     -3.021057    0.957801    1.102023
C      3.400720   -0.653861    0.898992
C      2.811415    0.243029   -1.249025
C      4.673570   -0.135689    0.781280
C      4.072161    0.768949   -1.386162
C      2.485610   -0.459051   -0.117338
C     -2.243227    0.475000    0.110865
C      4.982732    0.563518   -0.353982
C      1.162966   -1.042766    0.070189
C     -1.355633   -0.708388    0.229835
N     -0.012177   -0.273677    0.063750
N      6.289104    1.104489   -0.495212
O      1.033812   -2.295831    0.247714
O      6.652646    1.797266   -1.628091
O      7.150510    0.970075    0.404362
H     -3.088333   -3.075383    1.513869
H     -3.351688   -1.832792    2.719877
H     -3.716286   -1.538936    0.931156
H     -2.809532   -1.817539   -0.860411
H     -1.196139   -2.608302   -0.681862
H     -1.396917   -1.250031   -1.909747
H     -1.326912   -0.865149    2.386513
H     -0.946131   -2.393920    1.447223
H     -4.363716    3.588708   -0.485148
H     -2.956427    2.752792   -2.341989
H     -4.430691    2.473675    1.719606
H     -1.604902    0.764139   -1.946024
H     -3.018360    0.447707    2.055078
H      3.187154   -1.198774    1.801750
H      2.045085    0.360413   -2.008596
H      5.420114   -0.265464    1.550744
H      4.337127    1.326158   -2.280459
H      0.143798    0.775292   -0.093144
