56

C     -5.596976    0.712696    0.245053
C     -1.021943   -4.628992   -0.385892
C     -1.376055    4.496650   -0.722349
C     -4.742976    0.271997    1.219932
C     -5.128531    0.778275   -1.051083
C     -1.398264   -4.068364   -1.583245
C     -0.823436   -3.825696    0.721064
C     -0.670475    3.698395   -1.611998
C     -1.843533    3.961267    0.457796
C     -3.457217   -0.090851    0.896041
C     -3.850808    0.416215   -1.363304
C     -1.572564   -2.689788   -1.653996
C     -1.002717   -2.455713    0.627578
C     -0.442927    2.363454   -1.300900
C     -1.594998    2.622976    0.731352
C      4.023584    0.536746    1.496109
C      3.459321   -0.735798   -0.398458
C      5.744284   -0.585913    0.338659
C     -2.962648   -0.036133   -0.384752
C     -1.379307   -1.876055   -0.562734
C     -0.901319    1.812433   -0.129328
C      3.048990    0.080060    0.637307
C      5.345355    0.239380    1.390157
C      4.808416   -1.065800   -0.543330
C     -1.571446   -0.432840   -0.674698
C     -0.658616    0.394251    0.213507
C      1.623282    0.437095    0.801052
N      0.726606    0.018778    0.014966
N      6.291449    0.742773    2.307230
N      5.239302   -1.902137   -1.603523
O      1.311672    1.262319    1.870132
O      7.612345    0.432233    2.181324
O      5.920247    1.471352    3.232964
O      6.547708   -2.219722   -1.741707
O      4.446477   -2.378151   -2.447113
H     -6.635612    1.010772    0.476771
H     -0.865395   -5.698500   -0.249670
H     -1.569252    5.552835   -0.943624
H     -5.087393    0.213876    2.232544
H     -5.804648    1.125786   -1.815286
H     -1.543451   -4.730842   -2.424788
H     -0.525181   -4.254802    1.676173
H     -0.320286    4.148324   -2.522950
H     -2.392975    4.567911    1.159073
H     -2.773995   -0.449408    1.681362
H     -3.442912    0.452802   -2.370314
H     -1.870203   -2.309778   -2.628466
H     -0.829623   -1.878479    1.540541
H      0.108496    1.770086   -2.013482
H     -1.984727    2.248457    1.684960
H      3.716742    1.187925    2.327757
H      2.762279   -1.135292   -1.113614
H      6.805251   -0.813862    0.268566
H     -1.402798   -0.161259   -1.755061
H     -0.910564    0.138652    1.255377
H      0.413964    1.257407    2.310317
