31

C     -3.358704    0.759158   -1.314173
C      5.616860    1.172860   -0.365918
C     -3.180622   -1.981036    1.329610
C     -3.712745   -0.601596   -0.700657
C      4.729971    0.300071   -0.745407
C      2.491184   -0.671374   -0.835227
C      2.818264    1.287812    0.458150
C      1.170754   -0.663396   -0.478960
C      1.479540    1.299390    0.821811
C     -2.933141   -0.680153    0.598867
C      3.347230    0.327162   -0.359093
C      0.659470    0.323392    0.352001
C     -0.742021    0.325919    0.725920
O     -1.188111    1.214282    1.470318
O     -1.557822   -0.667491    0.242578
H     -3.918856    0.915180   -2.250996
H     -3.555743    1.551216   -0.583067
H     -2.266138    0.701922   -1.528255
H      6.660093    1.098466   -0.695397
H      5.342262    1.984642    0.279069
H     -3.988849   -1.873376    2.079968
H     -3.358352   -2.793934    0.613278
H     -2.257447   -2.222581    1.895021
H     -4.783706   -0.706627   -0.540476
H     -3.354709   -1.351091   -1.434690
H      5.074616   -0.507000   -1.405649
H      2.890975   -1.446552   -1.487483
H      3.460032    2.083842    0.848544
H      0.471698   -1.428068   -0.832021
H      1.109113    2.087956    1.475720
H     -3.165095    0.161006    1.253226
