41

C     -6.128793   -0.957102    1.346447
C      6.270698    1.682309   -0.910028
C      5.360290   -0.536033    0.757847
C     -6.026358   -0.158201    0.063893
C      4.920556    1.703846   -0.226902
C     -4.600028   -0.186003   -0.474098
C     -3.655373    0.400549    0.523367
C     -2.219404    0.398150    0.024268
C     -1.715741   -0.985869   -0.272402
C     -0.302219   -0.916061   -0.772404
C      0.673291   -0.316011    0.177959
C      4.409206    0.287003   -0.072149
C      2.058175   -0.292807   -0.375142
O      2.355498   -0.731808   -1.514333
O      3.092755    0.234366    0.383474
H     -6.132939   -0.227260    2.179013
H     -5.229805   -1.610060    1.406484
H     -7.068765   -1.558968    1.379605
H      6.304953    0.756505   -1.551332
H      6.438590    2.565087   -1.547965
H      7.104743    1.600473   -0.198416
H      5.423291   -0.221577    1.805789
H      5.069526   -1.611402    0.638822
H      6.362955   -0.463193    0.251998
H     -6.668883   -0.673986   -0.688297
H     -6.291740    0.898373    0.213359
H      5.104709    2.103613    0.810048
H      4.221588    2.345433   -0.770063
H     -4.593905    0.365905   -1.417622
H     -4.365178   -1.272233   -0.658910
H     -3.929318    1.466820    0.663498
H     -3.668485   -0.167431    1.461795
H     -1.592804    0.819335    0.841908
H     -2.081926    1.038086   -0.856577
H     -2.389943   -1.477191   -1.027215
H     -1.692878   -1.604928    0.657028
H     -0.267201   -0.348667   -1.745778
H     -0.022903   -1.969705   -1.065664
H      0.340502    0.705942    0.452859
H      0.705864   -0.928326    1.100084
H      4.427400   -0.156971   -1.100960
