26

C     -2.652855    1.768160    0.081132
C     -2.827268   -1.019673   -0.775958
C     -2.311717    0.607466    0.962764
C      2.734922    0.045077    0.274246
C      1.901903   -0.801449   -0.657680
C     -1.768250   -0.582497    0.203939
C      4.073238    0.317559   -0.277518
C      0.571183   -1.035292   -0.042070
O      4.351834   -0.170424   -1.414198
O      4.990201    1.074143    0.415220
O      0.448209   -1.918531    0.849605
O     -0.539785   -0.322042   -0.408541
H     -2.711034    2.677314    0.738278
H     -3.659856    1.660340   -0.370996
H     -1.904559    1.923389   -0.731864
H     -3.720349   -1.306096   -0.170463
H     -3.156283   -0.147341   -1.402490
H     -2.519993   -1.886715   -1.390486
H     -1.576901    0.855253    1.745421
H     -3.250075    0.278115    1.472818
H      2.156153    0.991542    0.442322
H      2.823274   -0.486238    1.234407
H      1.811946   -0.335571   -1.654564
H      2.421163   -1.776368   -0.792180
H     -1.668939   -1.402982    0.968764
H      5.983840    0.992862    0.199404
