33

C      4.908328    1.159174   -1.075609
C      3.774883   -1.012933    0.393884
C      3.487228    1.211382   -0.548765
C     -5.297595    0.164861    1.377429
C     -4.366163    0.582352    2.306585
C     -4.873015   -0.302178    0.162420
C     -3.019374    0.534200    2.025326
C     -3.107843   -0.836692   -1.381281
C     -1.763634   -0.893905   -1.684849
C     -1.296569   -0.014245    0.451943
C      2.910620   -0.198501   -0.511568
C     -3.536988   -0.366751   -0.158488
C     -2.623413    0.057288    0.789137
C     -0.836930   -0.477601   -0.758102
C      0.583904   -0.540153   -1.084227
O      1.006697   -0.962443   -2.187411
O      1.574559   -0.138750   -0.202468
H      4.964723    0.320186   -1.818078
H      5.087664    2.099043   -1.630611
H      5.626412    1.010106   -0.248034
H      3.794251   -0.596635    1.419238
H      4.827395   -0.899858    0.006562
H      3.572507   -2.095307    0.364470
H      3.559865    1.579352    0.512306
H      2.863472    1.914252   -1.105722
H     -6.340506    0.222061    1.644841
H     -4.688015    0.956315    3.277323
H     -5.631038   -0.622881   -0.546209
H     -2.288602    0.867625    2.768929
H     -3.863855   -1.157969   -2.091613
H     -1.480130   -1.265303   -2.644561
H     -0.560488    0.312251    1.177595
H      3.031648   -0.608341   -1.547777
