37

C      4.194127    1.259190   -0.460789
C      2.499528   -0.370061    1.186192
C      3.327089    0.175124   -1.065610
C     -3.650683   -3.356060   -1.078662
C     -1.337413    2.933042    2.146512
C     -3.582608   -2.385531   -0.100441
C     -2.696525   -3.315382   -2.073907
C     -1.001829    1.616904    2.466067
C     -1.362025    3.317061    0.826389
C     -2.587087   -1.431583   -0.150441
C     -1.704341   -2.365702   -2.124925
C     -0.702416    0.729536    1.457925
C     -1.058662    2.411911   -0.167798
C      2.093692    0.015746   -0.210706
C     -1.630058   -1.385713   -1.143172
C     -0.725452    1.108424    0.135108
O      1.166077   -0.847388   -0.772169
P     -0.320565   -0.102026   -1.177247
H      5.271941    1.099605   -0.660064
H      3.850974    2.231466   -0.897313
H      4.078162    1.346710    0.633176
H      2.611612    0.536828    1.796903
H      1.804607   -1.119820    1.619321
H      3.492702   -0.900012    1.095381
H      3.941681   -0.761802   -1.030997
H      3.102053    0.408541   -2.109342
H     -4.424480   -4.128251   -1.073129
H     -1.568420    3.615814    2.933495
H     -4.316048   -2.390082    0.693620
H     -2.739013   -4.072600   -2.848744
H     -0.984036    1.321058    3.502576
H     -1.623096    4.341237    0.575293
H     -2.552325   -0.674604    0.632263
H     -0.952071   -2.321465   -2.896330
H     -0.443452   -0.286757    1.708401
H     -1.083013    2.732509   -1.205156
H      1.611372    1.014134   -0.161679
