56

C      7.207421    0.865930    1.233657
C     -7.716246    1.207900    0.288383
C     -6.678591   -1.525903    0.434958
C      7.313696   -0.010663    0.057846
C     -6.919814    0.731533    1.484689
C      6.105857   -0.463470   -0.648201
C      5.191119    0.533109   -1.236312
C      4.507677    1.460258   -0.264948
C      3.622494    0.739468    0.696660
C      2.492489   -0.020748    0.001692
C      1.655079   -0.704256    1.033282
C      0.546123   -1.481456    0.389969
C     -0.330864   -0.530138   -0.389203
C     -1.483159   -1.252175   -1.048214
C     -2.301405   -0.258304   -1.816020
C     -2.854375    0.781568   -0.907846
C     -5.956543   -0.337934    1.038642
C     -3.728910    0.212108    0.162550
O     -3.296514   -0.282106    1.226954
O     -5.129338    0.204722    0.017477
H      7.413132    1.943289    1.027812
H      6.311030    0.736346    1.860188
H      8.058051    0.597250    1.944556
H     -8.441135    0.411567   -0.002827
H     -8.282951    2.105964    0.550646
H     -7.033733    1.360436   -0.583895
H     -7.417910   -1.924913    1.162545
H     -7.143817   -1.242589   -0.523687
H     -5.907514   -2.301472    0.242113
H      8.067571    0.422844   -0.679445
H      7.857504   -0.956003    0.388965
H     -6.366638    1.594807    1.895230
H     -7.590199    0.338289    2.257853
H      6.451660   -1.141951   -1.487049
H      5.499027   -1.147181   -0.000142
H      5.641813    1.112402   -2.084472
H      4.367093   -0.040886   -1.753439
H      5.181140    2.130014    0.280843
H      3.852667    2.134051   -0.886181
H      4.161897    0.042171    1.352744
H      3.114962    1.509059    1.326911
H      2.867499   -0.810365   -0.675988
H      1.938313    0.749184   -0.563263
H      1.234233    0.112367    1.689206
H      2.257420   -1.329856    1.730832
H      0.963126   -2.255898   -0.286767
H     -0.026633   -2.025983    1.173248
H      0.264731   -0.077290   -1.183063
H     -0.746248    0.176778    0.344627
H     -1.125995   -2.078755   -1.709783
H     -2.121545   -1.753422   -0.279657
H     -1.608800    0.282492   -2.530224
H     -3.071151   -0.737886   -2.457355
H     -2.085703    1.401603   -0.424411
H     -3.441476    1.494370   -1.544908
H     -5.337620   -0.700276    1.864087
