37

C      4.706507    0.085830   -0.394135
C      2.667226   -1.375920    0.967925
C      3.401191    0.747103   -0.022429
C     -2.825863    3.803759    0.033476
C     -2.666915   -3.519103    0.306939
C     -2.619839    3.389040   -1.254776
C     -2.230448    3.134703    1.096528
C     -2.411969   -3.251651   -1.023952
C     -2.173250   -2.684220    1.290491
C     -1.818864    2.298921   -1.542844
C     -1.445468    2.064840    0.800541
C     -1.656119   -2.135042   -1.334046
C     -1.423711   -1.579352    0.955825
C      2.298781   -0.302974   -0.043981
C     -1.236191    1.644802   -0.496943
C     -1.161455   -1.299514   -0.360255
O      1.127584    0.286794    0.401013
P     -0.155424    0.187841   -0.759701
H      5.477937    0.324812    0.392584
H      5.046149    0.444887   -1.388178
H      4.643501   -1.016990   -0.426575
H      3.196840   -0.832350    1.803493
H      3.277782   -2.175623    0.550062
H      1.711103   -1.799997    1.382238
H      3.434246    1.143195    1.020947
H      3.150949    1.586368   -0.709994
H     -3.448934    4.653469    0.273031
H     -3.256573   -4.391066    0.539141
H     -3.112826    3.952149   -2.052262
H     -2.380982    3.447184    2.123228
H     -2.790110   -3.894578   -1.815714
H     -2.375618   -2.897480    2.336114
H     -1.668639    1.987915   -2.559911
H     -0.965270    1.522062    1.629127
H     -1.441116   -1.901717   -2.368934
H     -1.038919   -0.929341    1.714159
H      2.164706   -0.718757   -1.062234
