18

C     -2.294663   -0.386908   -0.187653
C     -0.202350    1.536815   -0.552178
C     -1.005858   -0.530980    0.574452
C      0.101582    0.068091   -0.287676
N      2.381405   -0.636077   -0.223279
O      3.688464   -0.347504    0.145685
O      2.164657   -1.495756   -1.095878
O      1.347179    0.032033    0.380742
H     -2.866581    0.466644    0.254188
H     -2.925091   -1.302701   -0.138144
H     -2.126484   -0.209585   -1.284098
H     -0.242682    2.067049    0.402781
H      0.639758    1.934441   -1.156125
H     -1.123300    1.681692   -1.131714
H     -1.021305    0.053130    1.517050
H     -0.726720   -1.596458    0.734731
H      0.145304   -0.472710   -1.243967
H      4.066688   -0.861214    0.942165
