21

C     -1.382575    1.485906   -1.110193
C     -1.606959   -1.675854    0.999098
C      3.811690    0.283965    0.395991
C     -1.929623    0.424744   -0.193042
C     -0.936187   -0.684910    0.071723
C      2.595013    0.358128    0.883298
C      1.488753   -0.233748    0.160015
Br     2.300504    1.246677    2.541328
O      1.647749   -0.825208   -0.932958
O      0.220622   -0.153525    0.673211
H     -1.681633    2.514974   -0.811066
H     -1.767945    1.301437   -2.152076
H     -0.275594    1.451312   -1.205244
H     -1.642250   -1.295725    2.026998
H     -1.037794   -2.634526    1.034868
H     -2.640691   -1.827495    0.654193
H      4.632591    0.721339    0.929467
H      3.988984   -0.216558   -0.541335
H     -2.226332    0.943477    0.751661
H     -2.867407   -0.010218   -0.597361
H     -0.690916   -1.174191   -0.865753
