31

C      3.978170    0.527008   -0.033151
C     -2.395538    3.168702   -0.758235
C     -2.790239   -2.747356   -0.192293
C      1.853299   -1.180134   -0.421146
C      2.592142    1.109508    0.017604
C     -2.389914    1.683817   -0.481271
C     -1.367287   -2.259381   -0.008999
C      1.620688    0.033360    0.442661
O     -1.779077    1.038076   -1.543366
O     -0.902787   -1.687717   -1.175214
O      0.296235    0.450622    0.361120
P     -0.527334   -0.042045   -1.047848
H      4.242803    0.159724   -1.064801
H      4.063293   -0.289577    0.715124
H      4.755905    1.271677    0.214827
H     -1.819344    3.720777    0.036017
H     -3.434440    3.536499   -0.760516
H     -1.915693    3.428632   -1.726620
H     -3.237448   -2.113651   -0.999050
H     -2.836197   -3.802390   -0.505391
H     -3.330703   -2.584783    0.776841
H      1.380784   -1.053888   -1.415394
H      2.933598   -1.337141   -0.618550
H      1.514561   -2.110667    0.099467
H      2.624413    1.935540    0.766156
H      2.302919    1.458548   -0.975969
H     -1.835746    1.451806    0.437317
H     -3.420365    1.271113   -0.396032
H     -0.759645   -3.194972    0.166470
H     -1.233270   -1.642874    0.875533
H      1.816218   -0.198835    1.503295
