21

C     -1.863358    1.516275   -0.303455
C     -1.110887   -2.146895    0.413958
C      3.723184    0.978849    0.000360
C     -2.016666    0.030473   -0.183975
C     -0.785879   -0.655529    0.358024
C      2.687630    0.408259   -0.561032
C      1.472403    0.164424    0.183476
Br     2.791546   -0.104402   -2.383251
O      1.438077    0.518368    1.393771
O      0.357383   -0.448152   -0.415006
H     -2.888645    1.961817   -0.210124
H     -1.231293    1.933603    0.488631
H     -1.455699    1.764742   -1.317605
H     -2.198418   -2.319075    0.521614
H     -0.801510   -2.585604   -0.555129
H     -0.592692   -2.604375    1.281107
H      3.667465    1.273109    1.041245
H      4.631154    1.160304   -0.558377
H     -2.830964   -0.156365    0.568752
H     -2.364513   -0.406515   -1.146552
H     -0.628318   -0.283308    1.383569
