21

C     -1.915626   -0.316658    1.449851
C     -1.246023   -1.270817   -1.264988
C      3.308657    0.030307    0.617890
C     -1.738886    0.593203    0.280905
C     -0.753866    0.061890   -0.742285
C      2.932487    0.766682   -0.390447
C      1.548798    0.784220   -0.861759
Cl     4.101790    1.768567   -1.215035
O      1.200611    1.495728   -1.830786
O      0.552511    0.024166   -0.271882
H     -1.341087   -1.260254    1.374492
H     -2.989082   -0.587823    1.631132
H     -1.565459    0.163534    2.410316
H     -0.405528   -1.976934   -1.436844
H     -1.963575   -1.678038   -0.522422
H     -1.803906   -1.158623   -2.209890
H      2.573169   -0.585151    1.119194
H      4.325645    0.021723    0.958905
H     -1.309103    1.572421    0.633722
H     -2.712343    0.788212   -0.196083
H     -0.799186    0.763643   -1.600076
