48

C      3.257593   -0.059888   -0.942938
C      2.830285   -2.063723    0.349252
C      1.183652    3.947461   -1.854090
C     -2.655313    0.615329   -1.376553
C     -0.155251    0.381329    2.768880
C     -3.065400   -1.069171    1.312310
C     -2.657284   -1.413884   -0.103927
C     -1.782109   -1.289941    2.109094
C     -0.827819   -1.038961   -1.624682
C      0.568687   -1.306027   -1.182258
C      2.462409   -0.579080    0.211189
C      1.113720    3.084472   -0.672024
C     -1.036755    0.427273    0.426870
C      0.397341    0.847804    0.106434
C     -1.701524   -0.348506   -0.644624
C     -0.644177   -0.484421    1.601698
C      0.983266   -0.497582    0.031545
O      1.493602    3.363116    0.472152
O      0.601989    1.841141   -0.724038
O      0.414422   -1.169536    1.119017
H      3.303038   -0.841561   -1.726759
H      2.953193    0.926186   -1.309373
H      4.318160    0.058134   -0.581444
H      2.916207   -2.472652   -0.690985
H      3.752271   -2.195069    0.921594
H      2.017257   -2.635067    0.830865
H      0.149703    4.342545   -2.053705
H      1.550304    3.432256   -2.760484
H      1.805962    4.843657   -1.636660
H     -3.369413    0.042861   -2.009051
H     -3.253838    1.143973   -0.625091
H     -2.099001    1.273239   -2.056514
H     -0.501810    1.431265    2.653745
H     -0.577155    0.033069    3.735770
H      0.951551    0.306817    2.885904
H     -3.449335   -0.053627    1.424554
H     -3.791618   -1.839159    1.631537
H     -3.526869   -1.560158   -0.769014
H     -2.139870   -2.403726   -0.046660
H     -2.057857   -1.071941    3.174565
H     -1.573800   -2.385413    2.084794
H     -0.838450   -0.432867   -2.580446
H     -1.254261   -2.023053   -1.977872
H      1.308624   -1.160693   -2.025816
H      0.728357   -2.370688   -0.895394
H      2.718299   -0.113426    1.180126
H     -1.606405    1.293109    0.756030
H      0.785421    1.244785    1.082480
