47

C      3.463779   -2.278813   -1.893129
C      7.953054    1.478215    1.879242
C     -8.775097    0.552267    0.520001
C      7.729032    1.735839    0.544134
C      7.083247    0.608267    2.492111
C     -8.255384    1.025243   -0.682530
C     -7.959659    0.007456    1.489725
C      6.686937    1.149591   -0.134592
C      6.020084    0.006230    1.811664
C     -6.892134    0.946782   -0.909078
C     -6.595939   -0.056802    1.231688
C      3.860782   -1.149379    0.222987
C      4.732438   -0.308807   -0.299019
C     -3.832280   -0.678055    0.340885
C     -3.974297    1.259712   -0.954030
C     -2.448185   -0.719649    0.090291
C     -2.624086    1.224738   -1.202577
C      2.798085   -1.682347   -0.674683
C      5.808825    0.270245    0.487491
C     -6.052475    0.403387    0.050474
C     -4.616778    0.319194   -0.182075
C     -1.812520    0.217605   -0.678360
C      0.510905   -0.785893   -0.654634
N     -0.426762    0.209895   -0.964719
O      0.170871   -1.808534   -0.066623
O      1.864760   -0.693374   -0.981659
H      3.869220   -1.533504   -2.585566
H      4.329694   -2.872579   -1.517116
H      2.796574   -3.021562   -2.397284
H      8.765562    1.926824    2.435338
H     -9.857961    0.619982    0.686818
H      8.416446    2.421528    0.065490
H      7.223996    0.377365    3.544200
H     -8.921579    1.455345   -1.440206
H     -8.382146   -0.363265    2.437048
H      6.515742    1.360135   -1.197403
H      5.373446   -0.665291    2.344149
H     -6.466697    1.306795   -1.835048
H     -5.980542   -0.489337    2.011428
H      3.911783   -1.440960    1.255507
H      4.626202   -0.048197   -1.369404
H     -4.304173   -1.451445    0.964104
H     -4.577877    2.065275   -1.382135
H     -1.893235   -1.532176    0.540059
H     -2.117465    1.966544   -1.812096
H      2.272274   -2.504543   -0.151411
H     -0.016465    1.056841   -1.479453
