40

C      5.280544   -0.969277    1.543030
C     -5.196197   -2.258513    1.520862
C     -3.832352    2.933889   -1.904180
C     -2.617605   -1.199752    0.660839
C     -3.834896    0.578778   -0.393964
C      2.306009   -1.220138    0.327901
C      4.914773   -1.079807    0.054544
C     -3.811277   -0.589246    0.353281
C      3.516366   -0.652444   -0.121156
C     -1.441548   -0.626254    0.210486
C      1.099574   -0.634099    0.036937
C     -2.636443    1.119547   -0.824911
C     -1.424120    0.532948   -0.533990
C      1.107107    0.525431   -0.707052
C      3.507959    0.497319   -0.857761
C     -0.161464   -1.240516    0.514376
C     -0.187760    1.138770   -1.009312
C      2.288628    1.084600   -1.148611
C      4.891769    0.819540   -1.161596
O     -0.135568   -2.304959    1.195046
O     -0.162496    2.200612   -1.691912
O      2.286091    2.248546   -1.894716
O      5.215828    1.842709   -1.840389
O     -5.034434   -1.096557    0.764502
O     -2.613940    2.287375   -1.575291
O      5.692404   -0.139484   -0.602961
H      4.585217   -0.239995    2.014114
H      5.212726   -1.953979    2.043989
H      6.315776   -0.561147    1.654981
H     -4.485559   -3.031033    1.144623
H     -5.032510   -2.071824    2.613661
H     -6.249836   -2.602891    1.427261
H     -4.318836    3.254086   -0.950986
H     -3.676611    3.821467   -2.516452
H     -4.496545    2.169919   -2.352709
H     -2.642623   -2.108669    1.245380
H     -4.740568    1.075471   -0.648766
H      2.336953   -2.135105    0.912385
H      5.086134   -2.123254   -0.297510
H      3.089331    2.707934   -2.245712
