22

C      0.835842    1.138874    0.256568
C     -2.297750   -0.739815   -0.328129
C      1.275266   -0.234347   -0.244495
C     -0.916955   -0.199062   -0.509306
C     -0.681162    1.089713    0.250022
C      2.502203   -0.706344    0.371438
N      0.110354   -1.036311    0.084219
O     -2.670198   -0.883606    0.986336
O     -1.228148    2.150599   -0.465552
O      2.539953   -1.709836    1.112973
O      3.684277   -0.022090    0.132652
H      1.139506    1.909807   -0.481001
H      1.203646    1.342562    1.275971
H     -2.304899   -1.766312   -0.781531
H     -3.004910   -0.143998   -0.905698
H      1.312821   -0.198142   -1.364959
H     -0.643335   -0.035985   -1.565653
H     -1.078931    1.007467    1.267846
H      0.143614   -1.989450   -0.300151
H     -3.431537   -1.515206    1.024826
H     -1.085512    3.003563    0.005497
H      4.595855   -0.462082    0.145482
