39

C      0.508773   -3.690008    0.181581
C     -5.147034    2.572241    1.148001
C      5.248556    2.181583   -0.108339
C     -0.563445   -2.640836    0.290450
C     -1.684145    0.430341   -1.430194
C     -2.073019   -0.244861    0.794669
C     -2.685967    1.348806   -1.316496
C     -3.099949    0.700168    0.904435
C      1.996555   -0.832506   -1.194268
C      2.766461    0.405203    1.221583
C     -1.352796   -0.397864   -0.358564
C     -3.408110    1.500184   -0.154407
C     -0.278813   -1.406979   -0.488195
C      1.057440   -0.814919   -0.254694
C      1.425090   -0.182892    1.003401
C      3.320975   -0.259226   -0.997516
C      3.677932    0.374071    0.273780
O      0.649884   -0.094245    1.968533
O      4.202257   -0.283216   -1.898279
O     -4.426214    2.434656   -0.040404
O      4.931824    0.917901    0.462676
H      0.442239   -4.268522   -0.780302
H      0.309341   -4.443521    0.978097
H      1.523697   -3.301071    0.361173
H     -5.516276    1.595172    1.549769
H     -6.052622    3.204425    0.993947
H     -4.508478    3.041180    1.909025
H      5.135057    2.102384   -1.212571
H      4.591970    2.987815    0.267868
H      6.297997    2.451706    0.128240
H     -0.734405   -2.459266    1.360299
H     -1.487658   -3.101135   -0.170958
H     -1.116338    0.311429   -2.344158
H     -1.917009   -0.833371    1.684084
H     -2.938254    1.987362   -2.149250
H     -3.657372    0.803611    1.829854
H      1.810690   -1.289108   -2.178956
H      3.021218    0.872063    2.166743
H     -0.270054   -1.678758   -1.594334
