35

C     -1.729298   -2.400845    0.273651
C      5.374314    0.130743   -1.435156
C     -1.162930   -1.585555    1.390355
C     -3.812033    2.342062   -0.339468
C     -3.172063    2.573837    0.852849
C     -3.417276    1.260579   -1.082002
C     -2.173299    1.733653    1.263434
C     -2.393217    0.403189   -0.656697
C      0.652723    0.409096   -0.917737
C      2.936912   -1.007829   -0.098955
C     -1.765738    0.642251    0.527775
C     -0.697611   -0.214933    1.047203
C      0.538048   -0.232340    0.235297
C      1.692777   -0.975949    0.697582
C      1.891375    0.369725   -1.697644
C      3.046666   -0.369096   -1.246889
O      1.704603   -1.625944    1.789744
O      1.899577    1.020864   -2.795905
O      4.190787   -0.370078   -2.027818
H     -1.147870   -2.389374   -0.642935
H     -2.792589   -2.141320    0.116406
H     -1.770063   -3.495895    0.575773
H      6.245277    0.101179   -2.110132
H      5.651229   -0.427717   -0.516214
H      5.201976    1.191156   -1.098338
H     -1.965973   -1.492948    2.209947
H     -0.373651   -2.172287    1.870777
H     -4.615616    3.002654   -0.687942
H     -3.464393    3.428275    1.466909
H     -3.914852    1.069700   -2.021894
H     -1.705416    1.981530    2.229775
H     -2.164751   -0.399013   -1.325113
H     -0.203332    0.971242   -1.253133
H      3.778914   -1.566031    0.263383
H     -0.363207    0.235417    2.038468
