44

C      0.866161   -2.293517   -2.834619
C     -2.244812    0.631803   -0.414228
C     -1.513693    1.807890    1.560830
C      0.442807   -0.959907   -3.405453
C     -1.985289   -3.842482    1.325868
C      2.636627    3.973915    0.299923
C     -0.825225   -3.802513    0.583640
C     -2.367933   -2.757851    2.089516
C      3.125043    2.790776    0.796216
C      1.385311    4.086392   -0.256423
C     -0.060017   -2.665435    0.618667
C     -1.585369   -1.609991    2.118439
C      2.318442    1.686614    0.725268
C      0.598227    2.927989   -0.305224
C      0.495308   -0.403850    1.336665
C     -1.234090    0.958243    0.367734
C     -0.422918   -1.556955    1.380063
C      1.031134    1.715562    0.173691
C      0.208903    0.035123   -2.276855
C      0.154817    0.515321    0.135702
O     -0.123606    1.210800   -2.566914
O      0.348203   -0.308458   -0.974832
H      1.213371   -2.991959   -3.605714
H      0.047700   -2.765796   -2.273892
H      1.746249   -2.173926   -2.138834
H     -3.256247    0.983525   -0.181341
H     -2.163486    0.017439   -1.293065
H     -0.688355    1.838299    2.279666
H     -2.426923    1.475462    2.110928
H     -1.783560    2.841624    1.197677
H      1.288048   -0.566003   -3.979774
H     -0.485769   -1.094070   -3.974419
H     -2.635469   -4.731105    1.332599
H      3.270130    4.866564    0.348978
H     -0.527207   -4.670026   -0.021515
H     -3.283751   -2.756577    2.691158
H      4.108846    2.769585    1.217425
H      0.999007    5.007101   -0.645455
H      0.854700   -2.662532    0.025162
H     -1.871204   -0.752698    2.725330
H      2.716015    0.767737    1.117632
H     -0.386581    3.049012   -0.727061
H      1.517272   -0.807731    1.087661
H      0.499181    0.216607    2.229180
