39

C     -1.504103    3.243945    0.947781
C     -4.439688   -3.182158    0.660527
C      5.598727   -1.658143    0.085691
C     -0.199542    2.474603    0.868848
C     -1.361954   -0.371725    0.687542
C     -2.191261    0.509347   -1.335024
C     -2.379622   -1.295931    0.672401
C     -3.204037   -0.408276   -1.352722
C      2.061260    1.120330    0.530781
C      2.767607   -0.529670   -1.700088
C     -1.237692    0.568704   -0.328605
C     -3.316953   -1.325320   -0.352504
C     -0.150790    1.573737   -0.334576
C      1.166109    0.941076   -0.423623
C      1.460152    0.111124   -1.590614
C      3.368060    0.472771    0.409543
C      3.674628   -0.354416   -0.743683
O      0.599857   -0.056828   -2.500620
O      4.244923    0.617316    1.292712
O     -4.346287   -2.248819   -0.381751
O      4.884792   -0.978251   -0.896238
H     -1.294919    4.261929    1.327779
H     -2.191361    2.782161    1.714495
H     -2.027835    3.294698   -0.017438
H     -5.430016   -3.694568    0.622020
H     -3.622131   -3.945954    0.636188
H     -4.416215   -2.631413    1.620007
H      6.540185   -2.043589   -0.376030
H      5.079702   -2.549348    0.490226
H      5.893486   -1.001247    0.929096
H     -0.116257    1.896093    1.810703
H      0.626301    3.202912    0.807357
H     -0.639620   -0.360892    1.491915
H     -2.116334    1.242963   -2.152626
H     -2.471114   -2.015397    1.453818
H     -3.931602   -0.420196   -2.161659
H      1.893087    1.721398    1.408800
H      3.013851   -1.159776   -2.569210
H     -0.283394    2.196809   -1.251220
