40

C     -0.273190   -1.481333   -1.021866
C      6.677613    0.722901   -0.658098
C     -6.970313    0.936053   -0.608923
C      2.480845    1.020856    0.167025
C      3.847108    0.934025   -0.103143
C      0.314789    0.042291    0.783705
C      2.440023   -1.295829    0.557832
C     -2.812297   -0.873813   -0.491742
C     -3.831061    1.582132    0.498600
C     -0.530077   -0.103557   -0.465011
C      1.764054   -0.108199    0.502583
C     -1.952071    0.105798   -0.234666
C     -2.403474    1.411762    0.281975
C      3.796557   -1.403593    0.293121
C     -4.234063   -0.676308   -0.266003
C      4.513641   -0.266634   -0.043826
C     -4.702071    0.604908    0.243738
O     -1.570239    2.327230    0.518606
O      4.480249   -2.610780    0.349947
O     -5.074744   -1.577986   -0.497160
O      5.879494   -0.371946   -0.310907
O     -6.036341    0.803707    0.460441
H      0.801780   -1.653594   -1.235638
H     -0.623511   -2.212490   -0.266655
H     -0.831790   -1.692989   -1.953918
H      7.613571    0.396131   -1.166267
H      6.984489    1.312674    0.229894
H      6.168316    1.441415   -1.338275
H     -6.995239    0.040373   -1.256566
H     -7.968661    1.178340   -0.221766
H     -6.670957    1.783439   -1.290689
H      1.991131    1.984096    0.110060
H      4.416426    1.814230   -0.366770
H      0.159983    0.990418    1.316943
H      0.072143   -0.761441    1.527540
H      1.922919   -2.185815    0.813258
H     -2.529180   -1.851487   -0.871604
H     -4.153790    2.553693    0.881581
H     -0.194074    0.622547   -1.252437
H      4.032013   -3.481225    0.586933
