41

C      5.011618   -1.320979    0.066804
C      4.047349    0.822003   -0.691494
C     -0.785301    0.688226    2.118517
C     -5.561496   -0.440571   -1.930257
C      1.857854    0.406798    1.319277
C      3.136596   -0.352547    1.298989
C      0.742678   -0.241764    0.520924
C      3.711234   -0.532221   -0.085941
C     -0.445284    0.612446    0.638724
C     -4.257164   -0.179223   -1.279714
C     -1.667392    0.241723   -0.050167
C     -4.080352    0.895259   -0.531240
C     -3.131562   -1.074711   -1.431054
C     -2.798666    1.155897    0.110486
C     -1.844992   -0.824746   -0.794481
O     -5.175551    1.750720   -0.394453
O     -3.267632   -2.102306   -2.134803
O     -2.742854    2.216195    0.804464
O     -0.764845   -1.674569   -0.934036
H      5.875088   -0.667494    0.208673
H      5.158282   -1.933995   -0.841123
H      4.959642   -1.988282    0.959028
H      4.840165    1.330020   -0.102216
H      3.170674    1.459197   -0.799372
H      4.473169    0.670915   -1.704908
H     -1.876659    0.678321    2.312096
H     -0.275892    1.544004    2.606673
H     -0.406835   -0.234533    2.603192
H     -5.655614   -1.546426   -2.046525
H     -5.589525   -0.026794   -2.958700
H     -6.413326   -0.078535   -1.324021
H      2.087349    1.438799    0.928700
H      1.541984    0.589207    2.377507
H      3.082340   -1.339026    1.800016
H      3.899590    0.238083    1.869628
H      0.547017   -1.222311    1.001485
H      1.140485   -0.403772   -0.490859
H      3.027540   -1.075836   -0.737693
H     -0.176279    1.650895    0.336041
H     -5.067958    2.697568   -0.013622
H     -0.325479   -1.825637   -1.848967
