35

C     -0.680442    3.818964   -0.439700
C      4.845718    0.153896    0.244761
C     -4.264523   -1.683406   -0.191209
C      4.431909   -0.997181   -0.386160
C      3.903070    1.015448    0.773003
C     -3.655219   -0.957404   -1.190849
C     -3.560561   -1.820083    0.982356
C      3.105725   -1.251640   -0.470705
C      2.554604    0.710836    0.661428
C     -2.412254   -0.388290   -1.053352
C     -2.308580   -1.254813    1.139879
C     -0.577036    2.527963    0.301137
C      2.094693   -0.430463    0.037531
C     -1.736776   -0.541139    0.124476
C      0.701258   -0.800235   -0.089201
C     -0.372439    0.050837    0.343564
N      0.459273   -1.951726   -0.635903
O     -0.578958    2.515868    1.566335
O     -0.757766   -2.493054   -0.850876
O     -0.476331    1.308322   -0.326595
H     -0.318693    4.608298    0.251644
H     -0.068362    3.807797   -1.376590
H     -1.720102    4.070985   -0.703987
H      5.908362    0.362290    0.314816
H     -5.261472   -2.129463   -0.326296
H      5.155544   -1.697796   -0.813601
H      4.265257    1.900653    1.256293
H     -4.237788   -0.862795   -2.117883
H     -3.983762   -2.380201    1.810089
H      2.788764   -2.154361   -0.966228
H      1.866996    1.413207    1.100692
H     -2.002084    0.160044   -1.868561
H     -1.787171   -1.398318    2.110075
H     -0.308986    0.208572    1.453293
H     -1.011868   -3.441613   -0.663675
