41

C      4.327835   -1.253115    0.913131
C      4.773320   -0.304880   -1.371002
C      0.205900    1.461546    1.500363
C     -5.955127   -0.260548   -0.615591
C      1.961940   -0.390306   -0.467464
C      2.930077    0.605381    0.045420
C      0.542060   -0.004664   -0.564000
C      4.335160   -0.032779    0.033054
C     -0.213109    0.343316    0.653176
C     -4.497160   -0.111324   -0.295349
C     -1.681755    0.280545    0.338234
C     -3.716448   -1.165574   -0.296613
C     -3.923648    1.167861    0.017820
C     -2.299964   -1.023706    0.013891
C     -2.484770    1.319385    0.334968
O     -4.231570   -2.431034   -0.594330
O     -4.654370    2.201254    0.026904
O     -1.543138   -2.049717    0.014484
O     -1.982969    2.581169    0.628623
H      5.301790   -1.396596    1.410896
H      4.052317   -2.162230    0.336058
H      3.576445   -1.087539    1.725381
H      4.093720    0.194953   -2.076829
H      4.757605   -1.403733   -1.545926
H      5.809560    0.098181   -1.550587
H      0.649008    2.339285    1.045115
H     -0.633902    1.839265    2.173187
H      0.941049    1.118671    2.309777
H     -6.335555    0.709343   -0.940902
H     -6.473608   -0.532998    0.332933
H     -6.131342   -1.077719   -1.326434
H      2.330518   -0.660486   -1.510112
H      2.060455   -1.394849    0.058922
H      2.803348    1.007614    1.035372
H      2.979387    1.441172   -0.684675
H     -0.028182   -0.820709   -1.106224
H      0.438830    0.851264   -1.331378
H      5.009597    0.711386    0.497639
H     -0.085035   -0.600032    1.329709
H     -5.182243   -2.690820   -0.430103
H     -1.826028    3.297098   -0.067540
