42

C     -7.571643   -0.222766   -0.312035
C     -0.636838   -1.647891   -0.139760
C     -5.252001    0.240300   -1.106372
C     -5.802230    0.714537    1.159972
C      5.665218   -0.769140   -1.488867
C      5.566326    0.032947    0.706767
C      4.298985   -0.810845   -1.550242
C      4.193337   -0.007710    0.648873
C     -3.964552    0.683032   -0.886522
C     -4.507140    1.151225    1.350281
C     -6.178882    0.254659   -0.079620
C     -0.305235   -0.179903    0.036510
C      6.324127   -0.345309   -0.356226
C      3.507748   -0.422217   -0.457961
C     -3.563089    1.148895    0.348248
C      1.142148   -0.019504    0.316996
C      7.793016   -0.313347   -0.325817
N      2.103276   -0.500217   -0.592174
O      1.478253    0.547606    1.370548
O      8.489640    0.103223    0.785524
O      8.415756   -0.674909   -1.337968
O     -1.843673    2.742739    1.668413
O     -1.438800    2.267077   -0.700195
O     -1.009713    0.381337    1.092497
S     -1.914289    1.708367    0.603088
H     -8.166371    0.563379   -0.798896
H     -7.519108   -1.105955   -0.993041
H     -8.012331   -0.459119    0.668073
H     -0.671111   -2.134146    0.840143
H      0.095436   -2.107256   -0.821510
H     -1.639645   -1.767091   -0.598293
H     -5.561851   -0.125539   -2.081723
H     -6.501417    0.741442    1.991696
H      6.255458   -1.074476   -2.346150
H      6.060611    0.369543    1.607400
H      3.795683   -1.150061   -2.459329
H      3.626250    0.304974    1.542092
H     -3.241762    0.670379   -1.692379
H     -4.210065    1.514011    2.328228
H     -0.512480    0.395287   -0.900991
H      1.723986   -0.973009   -1.468971
H      9.488973    0.275449    0.811812
