27

C     -0.886853   -1.999703   -0.564077
C     -2.885602    0.176880   -1.419116
C     -1.399562    1.692513   -0.468191
C      2.488763    0.772963   -0.261293
C      2.034691    0.266037    2.001267
C      1.227144    0.339193   -0.602841
C      0.780573   -0.161938    1.641791
C      4.227216    1.185374    1.431932
C     -1.013339   -0.596518   -0.084012
C      2.919607    0.743236    1.063354
C      0.337366   -0.140232    0.336481
N      5.301647    1.568318    1.745651
N     -1.555902    0.343324   -0.974292
H     -0.153602   -2.176271   -1.345589
H     -1.905722   -2.394550   -0.812633
H     -0.552023   -2.620482    0.317930
H     -3.155639   -0.825918   -1.784106
H     -3.067897    0.868932   -2.272708
H     -3.600433    0.469938   -0.626088
H     -1.367207    1.700580    0.652259
H     -2.258634    2.352392   -0.737637
H     -0.493450    2.175875   -0.901559
H      3.194265    1.150642   -0.985435
H      2.371232    0.244240    3.028373
H      0.927791    0.376299   -1.637362
H      0.125843   -0.526361    2.413917
H     -1.640275   -0.611971    0.843984
