47

C     -4.075784   -3.645171    0.146342
C     -1.094384   -0.208483    2.170082
C     -1.285315   -0.855792   -2.815345
C     -1.739807    4.472399    0.321441
C      5.966178   -0.793726    1.097268
C     -0.850003    3.879783    1.180086
C     -2.149292    3.817224   -0.813601
C      5.832310   -0.662023   -0.267459
C      4.831742   -0.628459    1.863691
C     -0.366524    2.631709    0.908141
C     -1.636089    2.540949   -1.063019
C      4.605227   -0.375296   -0.838020
C      3.613084   -0.342547    1.282722
C     -2.553243   -1.879668    1.083133
C     -2.675668   -2.218626   -1.279451
C     -3.073198   -2.548417   -0.000898
C     -1.614478   -0.851826    0.946985
C     -1.753866   -1.211814   -1.441700
C     -0.732737    1.926051   -0.201403
C      3.465122   -0.208047   -0.081970
C     -1.222057   -0.525511   -0.332061
C     -0.246194    0.559303   -0.525791
C      2.173608    0.094278   -0.688236
O      2.131445    0.200178   -1.940509
O      1.019584    0.266769    0.022789
H     -3.602739   -4.619819   -0.097994
H     -4.400580   -3.681338    1.212500
H     -4.930612   -3.497901   -0.547160
H     -1.639115    0.662818    2.518809
H     -1.204856   -0.970383    2.999358
H      0.002587   -0.028323    2.115810
H     -1.599122    0.118069   -3.168574
H     -0.163915   -0.977310   -2.886882
H     -1.649441   -1.671211   -3.513220
H     -2.101049    5.474051    0.579720
H      6.929400   -1.017977    1.533818
H     -0.529326    4.426491    2.095923
H     -2.850172    4.274267   -1.498150
H      6.717599   -0.789098   -0.890703
H      4.892067   -0.723108    2.937092
H      0.337160    2.226029    1.613361
H     -1.990238    2.080275   -1.958918
H      4.517572   -0.274159   -1.924162
H      2.722362   -0.213920    1.899175
H     -2.868580   -2.142674    2.088049
H     -3.049084   -2.709165   -2.170834
H     -0.109581    0.621148   -1.670238
