40

C      2.149433   -0.250095   -1.534911
C      2.179419    0.273282    1.341212
C      2.734664   -1.932716    0.838188
C     -0.479143    4.035988    0.024363
C     -3.507066   -2.355865    0.938889
C     -0.688493    3.134157    1.033637
C     -0.179061    3.569592   -1.222977
C     -2.364007   -2.111994    1.690793
C     -3.580800   -1.900014   -0.357786
C     -0.598658    1.775040    0.798150
C     -0.093437    2.215595   -1.440388
C     -1.308933   -1.420254    1.149181
C     -2.510933   -1.208789   -0.879344
C      1.115869   -0.828565   -0.553296
C     -0.297757    1.253749   -0.446317
C     -1.350386   -0.950496   -0.144364
C     -0.196183   -0.187935   -0.727705
N      1.713843   -0.917497    0.715206
O     -0.459110   -0.290911   -2.141102
H      1.857860   -0.560593   -2.559961
H      3.154098   -0.656858   -1.331253
H      2.126357    0.859845   -1.530618
H      2.194478    1.170051    0.699048
H      3.204273    0.114072    1.812448
H      1.541146    0.507661    2.217479
H      2.463894   -2.770385    0.153208
H      3.755228   -1.559217    0.665440
H      2.631469   -2.341126    1.886447
H     -0.540529    5.105818    0.170041
H     -4.313802   -2.903157    1.402555
H     -0.926894    3.516536    2.022341
H     -0.007292    4.273832   -2.046536
H     -2.283996   -2.458705    2.706349
H     -4.448219   -2.071697   -0.964223
H     -0.779343    1.128349    1.651875
H      0.143665    1.859119   -2.431391
H     -0.395849   -1.215573    1.714649
H     -2.567153   -0.846221   -1.908220
H      1.008210   -1.906412   -0.952856
H     -0.096864   -1.147610   -2.458249
