47

C     -4.530927   -3.180595   -0.935488
C     -1.647684   -1.163148    2.554199
C     -1.034061    0.062027   -2.229340
C     -1.014623    4.642724    0.234766
C      5.944543   -0.993805   -0.886718
C     -1.556179    3.911376    1.265085
C     -0.230681    3.975750   -0.676212
C      4.879773   -0.637989   -1.689868
C      5.761834   -1.095980    0.469723
C     -1.323547    2.558544    1.382368
C     -0.009033    2.625908   -0.543438
C      3.668706   -0.398083   -1.094517
C      4.516104   -0.844660    1.040300
C     -3.049105   -2.116666    0.770275
C     -2.749017   -1.532915   -1.471864
C     -3.419066   -2.257923   -0.537339
C     -2.027659   -1.262022    1.115926
C     -1.720663   -0.670250   -1.140143
C     -0.532900    1.858559    0.471830
C      3.440383   -0.488355    0.258415
C     -1.313541   -0.496077    0.181669
C     -0.248402    0.411182    0.588532
C      2.125256   -0.221288    0.866987
O      1.953127   -0.311958    2.108377
O      1.033927    0.136554    0.112927
H     -4.483847   -3.399485   -2.020244
H     -5.473864   -2.681955   -0.647794
H     -4.432102   -4.084638   -0.303699
H     -2.211217   -1.940516    3.139069
H     -0.569326   -1.430567    2.730211
H     -1.870306   -0.195608    3.002629
H      0.050693    0.032952   -2.088156
H     -1.199050   -0.525895   -3.185923
H     -1.475965    1.043020   -2.443936
H     -1.203094    5.726396    0.143361
H      6.913952   -1.185511   -1.361956
H     -2.171871    4.435483    1.981837
H      0.207030    4.547083   -1.502493
H      4.975716   -0.545831   -2.756251
H      6.615849   -1.375816    1.070283
H     -1.762628    2.010918    2.203185
H      0.631375    2.182384   -1.298615
H      2.840418   -0.119573   -1.728512
H      4.452609   -0.946130    2.112895
H     -3.570299   -2.685586    1.534777
H     -3.031949   -1.635074   -2.521756
H     -0.148688    0.263036    1.724636
