52

C     -2.997205   -0.943458   -0.494387
C     -1.937457    0.361780   -2.923600
C     -1.213900   -1.868341   -2.714262
C      5.570748   -1.365958   -0.624374
C     -1.577573   -0.478891    4.337689
C     -0.415848    4.396469   -0.258100
C      4.881411   -0.192624   -0.719501
C      4.869827   -2.521692   -0.314143
C     -0.296806   -0.683862    3.872333
C     -2.555949   -0.089792    3.446328
C      0.631621    3.673049    0.202257
C     -1.567095    3.764547   -0.588453
C      3.518143   -0.197033   -0.504829
C      3.508315   -2.513329   -0.101537
C     -0.061298   -0.487132    2.525253
C     -2.299763    0.099253    2.114776
C      0.506554    2.311327    0.325343
C     -1.661641    2.383026   -0.452587
C     -1.552707   -0.655107   -0.708076
C      2.784862   -1.310515   -0.196328
C     -1.020886   -0.101413    1.614431
C     -0.652201    1.609322   -0.000287
C      1.347373   -1.328313    0.045066
C     -0.723264    0.114446    0.171615
N     -1.331909   -0.575726   -2.118943
O      0.725591   -2.383712    0.312125
O      0.629594   -0.234154   -0.004627
H     -3.699724   -0.118591   -0.704469
H     -3.366848   -1.685006   -1.309500
H     -3.236396   -1.557500    0.403773
H     -1.461683    1.315427   -3.128201
H     -2.999373    0.579117   -2.603369
H     -2.097214   -0.102522   -3.947480
H     -0.246665   -1.933631   -3.283991
H     -1.134887   -2.631272   -1.914002
H     -2.018421   -2.117772   -3.431424
H      6.643739   -1.372550   -0.790893
H     -1.759004   -0.635784    5.396114
H     -0.267117    5.478841   -0.338118
H      5.360906    0.762609   -0.959677
H      5.458098   -3.445337   -0.247690
H      0.531557   -0.988259    4.498065
H     -3.545940    0.055310    3.879868
H      1.587860    4.134912    0.484884
H     -2.391066    4.350643   -0.954038
H      3.008137    0.747185   -0.597193
H      2.987668   -3.419461    0.136224
H      0.987543   -0.618053    2.201828
H     -3.060745    0.436312    1.463851
H      1.358586    1.763198    0.707025
H     -2.589683    1.956238   -0.707906
H     -1.157869   -1.736219   -0.496862
