31

C      2.670583    1.735346    1.528228
C     -5.304372   -1.136778   -0.268984
C      3.620433   -1.800038   -1.698507
C     -0.017880    1.715685   -0.813097
C      0.169985    0.082455    0.875115
C     -1.379044    1.490204   -0.895147
C     -1.206115   -0.146173    0.792847
C      2.251226    1.253754    0.167800
C     -3.820265   -0.898538   -0.202369
C      0.782768    1.020177    0.069542
C     -1.992867    0.556747   -0.094101
C      2.998992    0.019642   -0.161208
N     -3.388681    0.304891   -0.157385
O     -2.935867   -1.976497   -0.190227
O      3.763357   -0.494253    0.692357
O      2.891634   -0.604822   -1.389858
H      3.579040    2.359971    1.409162
H      2.977748    0.817457    2.109277
H      1.869176    2.224547    2.087906
H     -5.692683   -0.955946   -1.274299
H     -5.513412   -2.195892    0.011185
H     -5.820095   -0.465011    0.443898
H      3.271657   -2.185101   -2.663144
H      4.710727   -1.523675   -1.734042
H      3.491141   -2.495928   -0.850719
H      0.456249    2.448914   -1.444152
H      0.779756   -0.472598    1.572875
H     -2.009906    2.036335   -1.588719
H     -1.653651   -0.887234    1.437790
H      2.519886    2.043769   -0.567001
H     -2.069520   -1.871410   -0.741171
