43

C      2.380128   -3.686005    0.066395
C      1.033935   -3.843411    0.131994
C      4.791917    1.269900   -0.157719
C      4.002299    2.385154   -0.147583
C      2.969383   -2.439784    0.011581
C      0.207412   -2.694552    0.144701
C      4.155678    0.014060   -0.098931
C      1.838957    3.404515   -0.072800
C      0.481199    3.353157   -0.009917
C     -1.482908    2.014557    0.110849
C      2.614825    2.269450   -0.080999
C     -0.108655    2.103478    0.046675
C      2.170839   -1.327148    0.023789
C      2.791977   -0.103022   -0.033406
C      0.763207   -1.452788    0.091603
C     -2.090456    0.804605    0.167427
C      1.992639    1.021029   -0.022994
C      0.617539    0.944062    0.041366
C     -0.033513   -0.322831    0.101742
C     -1.394922   -0.401725    0.165927
C     -3.601923    0.864512    0.210562
C     -3.974794   -0.189840   -0.828985
C     -2.173629   -1.622586    0.252742
C     -3.631982   -1.479570   -0.193406
O     -4.064190    2.106338   -0.118468
O     -5.303594   -0.186643   -1.155694
O     -2.743710   -2.270847   -0.822938
H      3.020048   -4.584147    0.056849
H      0.525866   -4.792760    0.176461
H      5.855568    1.317149   -0.207777
H      4.407242    3.388700   -0.189813
H      4.038933   -2.451248   -0.037528
H     -0.807778   -2.891271    0.195403
H      4.751439   -0.872968   -0.105383
H      2.331039    4.377857   -0.118329
H     -0.159676    4.230500   -0.001729
H     -2.042588    2.954528    0.113475
H     -3.893060    0.477722    1.193219
H     -3.385888    0.049854   -1.735981
H     -2.259955   -2.119662    1.294310
H     -4.419123   -1.977340    0.409815
H     -4.264773    2.623519    0.711737
H     -5.904952   -0.264495   -0.377285
