31

C     -2.011660    1.999535   -0.631217
C      4.424422    0.646779   -0.125202
C     -5.365226   -0.598541    0.123148
C     -0.143102    0.034686    0.856729
C      0.411625   -0.455387   -1.371071
C      1.112940   -0.417490    1.247975
C      1.656086   -0.903660   -0.985659
C     -1.858099    0.504312   -0.899143
C      4.398666   -0.690433    0.513064
C     -0.519259    0.023625   -0.471423
C      2.033168   -0.893306    0.339693
C     -2.953963   -0.228608   -0.227417
N      3.321916   -1.360856    0.711342
O      5.600344   -1.250584    0.919156
O     -2.670436   -1.136788    0.594763
O     -4.273005    0.049030   -0.471126
H     -2.845877    2.342815   -1.305232
H     -2.259733    2.195172    0.432668
H     -1.078296    2.482754   -0.955614
H      3.413521    0.946790   -0.471717
H      4.708027    1.382212    0.664921
H      5.190443    0.731360   -0.915820
H     -5.266018   -0.687178    1.223101
H     -5.540103   -1.551052   -0.379127
H     -6.268370    0.041473   -0.075788
H     -0.852628    0.404504    1.581404
H      0.153523   -0.479124   -2.415965
H      1.373917   -0.393080    2.307843
H      2.351777   -1.271697   -1.741092
H     -1.912764    0.392092   -2.007831
H      5.668164   -1.859356    1.722371
