22

C     -3.068123   -0.210857   -0.088169
C     -2.378804   -0.514477    1.065787
C     -2.344564    0.152233   -1.202027
C     -1.011344   -0.478340    1.177657
C     -0.968031    0.194362   -1.109019
C     -0.278021   -0.110020    0.047663
C      1.166178   -0.030958    0.026391
C      1.583296    1.116214    0.874259
C      1.952818   -1.246168    0.290027
F      1.814350   -1.888474    1.460266
F      3.304456   -0.916716    0.155648
F      1.737360   -2.193249   -0.725795
N      2.345565    0.991570    1.870857
O      1.132747    2.422985    0.591275
H     -4.156118   -0.250779   -0.139097
H     -2.940428   -0.800622    1.945079
H     -2.858342    0.395802   -2.121090
H     -0.434998   -0.705281    2.050594
H     -0.458964    0.493022   -2.040076
H      1.468507    0.287713   -1.010298
H      2.717033    0.063573    2.140393
H      1.675428    3.228469    0.879105
