21

C     -1.998814   -0.929062    0.602605
C      2.806754   -0.123543    0.067237
C      2.281298    0.776955    0.978538
C      1.991902   -0.832892   -0.782153
C      0.906683    0.935062    1.001278
C      0.611013   -0.640498   -0.723250
C     -1.390510    0.423832    0.206179
C      0.057255    0.249774    0.174042
C     -2.005133    0.808154   -1.062835
O     -1.447291    0.847727   -2.186724
O     -3.345175    1.171214   -1.047266
Na     0.000000    0.000000    0.000000
H     -2.888193   -0.731911    1.225838
H     -2.268313   -1.504372   -0.315329
H     -1.293695   -1.536019    1.170870
H      3.884394   -0.287583    0.006392
H      2.938291    1.333375    1.646677
H      2.386263   -1.539048   -1.498634
H      0.473390    1.626446    1.697702
H      0.008267   -1.220350   -1.410857
H     -1.708385    1.172739    0.977514
