32

C      0.113024    1.678455    0.894636
C      2.030252   -0.500310    1.647805
C      3.201534   -1.348920   -0.331552
C      0.391379    2.384084   -1.890030
C     -3.578819   -1.702274    0.285895
C     -2.349512   -2.162017    0.679673
C     -3.660933   -0.457164   -0.286602
C     -1.207188   -1.385164    0.504099
C     -2.526674    0.290080   -0.449756
C     -1.247703   -0.144492   -0.059265
C      1.161985   -0.001779   -0.641032
C     -0.051442    0.758568   -0.250466
N      2.096994   -0.594250    0.220767
O      1.419363   -0.150928   -1.905924
O     -0.432967    1.444034   -1.422271
H     -0.473543    1.382546    1.793914
H     -0.273128    2.681644    0.589065
H      1.137773    1.835274    1.235731
H      2.431748   -1.466958    2.091025
H      2.767578    0.264877    2.002800
H      1.051389   -0.384009    2.094654
H      3.625140   -0.749486   -1.189000
H      2.898892   -2.353935   -0.687534
H      4.021946   -1.488290    0.390195
H     -0.077316    2.812819   -2.828020
H      1.413313    2.155574   -2.151461
H      0.408653    3.281472   -1.204262
H     -4.476170   -2.289360    0.413447
H     -2.276873   -3.140048    1.130567
H     -4.634701   -0.102519   -0.594534
H     -0.295521   -1.811096    0.817523
H     -2.608472    1.263571   -0.900089
