32

C      0.131575    0.701606   -1.717214
C      2.447591   -0.939456   -0.613955
C      3.094662   -0.087871    1.608134
C     -0.259413    3.048973   -0.176364
C     -3.233712   -2.210989    0.416578
C     -3.548632   -0.931484    0.015305
C     -1.925022   -2.575778    0.596701
C     -2.558904   -0.016992   -0.206405
C     -0.921412   -1.625186    0.365188
C     -1.225415   -0.365583   -0.030461
C      0.942225    0.626261    0.636269
C     -0.202270    0.720167   -0.281278
N      2.113759   -0.123473    0.512141
O      0.875649    1.338138    1.720934
O     -0.939399    1.892079    0.080269
H     -0.449763    1.479877   -2.301501
H     -0.152555   -0.268234   -2.227803
H      1.199960    0.849012   -1.892823
H      1.634514   -1.370345   -1.182378
H      3.158131   -0.337128   -1.245153
H      3.108134   -1.794437   -0.260135
H      3.692572   -1.016992    1.631626
H      3.769123    0.748494    1.413554
H      2.570126   -0.027577    2.589471
H     -0.929725    3.898351    0.148525
H      0.693010    3.184377    0.329135
H     -0.181141    3.212716   -1.290508
H     -4.011122   -2.929281    0.590396
H     -4.578019   -0.613486   -0.135382
H     -1.609281   -3.547982    0.905808
H     -2.818259    0.978358   -0.519149
H      0.113014   -1.896137    0.520476
