24

C     -1.794851    0.122340    1.869596
C      1.319094    1.909552   -0.650510
C      0.115233    1.373817   -0.230236
C      2.453832    1.148409   -0.678266
C      1.200310   -0.684381    0.130302
C     -1.266062   -0.524033    0.625332
C      0.029510    0.042451    0.175961
C      2.413909   -0.182806   -0.282171
C     -2.254339   -0.554671   -0.479121
N     -2.022245    0.024808   -1.607820
N      3.558312   -1.008071   -0.293417
O     -3.461045   -1.213284   -0.320956
O      3.464469   -2.303010    0.103864
O      4.641619   -0.547872   -0.665136
H     -1.288801   -0.322728    2.771281
H     -2.864958   -0.175418    1.970209
H     -1.639667    1.204457    1.915165
H      1.403168    2.947834   -0.971069
H     -0.783080    1.960523   -0.203648
H      3.396217    1.550289   -1.002172
H      1.164602   -1.721298    0.439849
H     -1.056091   -1.601401    0.892597
H     -2.693525    0.015401   -2.385681
H     -4.035613   -1.460909   -1.123953
