24

C     -1.973945    0.581356    1.360841
C      1.671575   -1.646204    0.490895
C      0.355922   -1.266157    0.471093
C      2.665744   -0.792735    0.044583
C      0.996599    0.817585   -0.436770
C     -1.385828    0.454248   -0.047370
C     -0.004433   -0.021716    0.004515
C      2.332741    0.447302   -0.423000
C     -2.303170   -0.361218   -0.833374
N     -2.826820    0.148515   -1.894277
N      3.337711    1.352093   -0.891167
O     -2.675094   -1.662398   -0.543011
O      3.026926    2.586533   -1.358715
O      4.522613    1.000498   -0.869590
H     -1.927417    1.625495    1.721182
H     -3.016223    0.204191    1.395778
H     -1.352462   -0.089809    2.015669
H      1.964319   -2.626278    0.857443
H     -0.397233   -1.933680    0.817688
H      3.696512   -1.126309    0.074588
H      0.794568    1.824249   -0.823299
H     -1.386695    1.481940   -0.462906
H     -2.622861    1.120159   -2.215671
H     -3.493050   -2.117659   -0.975741
