24

C     -2.048836   -1.271458   -0.691909
C      1.399889   -0.589442    1.843512
C      0.134679   -0.461186    1.310202
C      2.539325   -0.360031    1.100317
C      1.119131    0.133775   -0.739260
C     -1.338578    0.066618   -0.653266
C     -0.027347   -0.091624   -0.010732
C      2.392469    0.011603   -0.227027
C     -2.169508    1.113964   -0.025821
N      3.543341    0.260497   -1.038595
N     -3.352621    0.882933    0.424074
O     -1.674290    2.403070    0.092912
H     -2.932832   -1.210688   -1.367415
H     -1.349360   -1.993476   -1.163913
H     -2.308019   -1.577446    0.336155
H      1.539060   -0.881206    2.887062
H     -0.750796   -0.644198    1.904546
H      3.543568   -0.455320    1.500520
H      1.051738    0.428043   -1.787245
H     -1.184406    0.366384   -1.707627
H      4.431757   -0.210077   -0.807886
H      3.529659    0.900615   -1.860744
H     -3.825408   -0.026082    0.393561
H     -2.262613    3.204731    0.288577
