29

C     -2.924237   -1.733773   -0.722516
C      4.873257    0.125079    1.077089
C      0.041482    1.200663   -1.914303
C     -1.046244    0.576862   -1.311437
C      1.300406    0.877393   -1.510143
C      0.394224   -0.667586    0.072970
C     -2.069758   -1.000491    0.299870
C      3.478862    0.439340    0.677462
C     -0.893628   -0.360693   -0.315381
C      1.489197   -0.055142   -0.517558
C     -2.972094    0.009038    0.940717
N     -4.202051    0.158110    0.630902
N      2.823640   -0.354844   -0.134417
O      2.907373    1.594365    1.193680
O     -2.399783    0.807221    1.921558
H     -3.361727   -1.055615   -1.456289
H     -3.752937   -2.202515   -0.151899
H     -2.376560   -2.560535   -1.213492
H      4.888708   -0.490523    2.002805
H      5.360747   -0.390353    0.233548
H      5.410113    1.084199    1.256819
H     -0.094342    1.941720   -2.702370
H     -2.032419    0.855237   -1.654532
H      2.137031    1.384253   -2.002366
H      0.559851   -1.396670    0.849901
H     -1.817898   -1.726730    1.078224
H     -4.710680   -0.385359   -0.080801
H      1.915826    1.768857    1.064551
H     -2.926361    1.558491    2.387408
