41

C     -1.035093    0.332376    1.536121
C      5.564892   -0.530090   -0.314845
C     -2.996657   -3.517161   -0.772980
C      4.853967    0.115213   -1.302940
C      4.914788   -0.785001    0.872695
C     -3.612482   -2.299546   -0.810919
C     -1.643376   -3.597775   -0.444274
C      3.530215    0.493456   -1.105353
C      3.590974   -0.405716    1.067751
C     -2.875946   -1.145608   -0.518787
C     -0.932176   -2.451740   -0.159180
C      1.441205    0.642622    0.314434
C     -1.139050    0.993997   -0.896207
C      2.876664    0.239976    0.081601
C     -1.540329   -1.227026   -0.194552
C     -2.458612    3.111042    1.153780
C     -0.749255    0.038013    0.125533
N     -3.593291    2.555893    0.804492
N     -1.381803    2.228425   -0.802961
N     -1.289202    2.855430    0.413236
O     -2.498615    3.938044    2.267009
O      0.575628   -0.344005   -0.060966
H     -0.544046    1.162286    2.025416
H     -2.147824    0.300713    1.742221
H     -0.683243   -0.581322    2.115829
H      6.602834   -0.828261   -0.465836
H     -3.592070   -4.387673   -1.003252
H      5.351030    0.322210   -2.240838
H      5.476059   -1.294810    1.653644
H     -4.672881   -2.216864   -1.066633
H     -1.218032   -4.582031   -0.431612
H      2.967573    1.005146   -1.889781
H      3.080323   -0.611817    2.015093
H     -3.398731   -0.200445   -0.559350
H      0.135103   -2.523780    0.099465
H      1.246313    1.544081   -0.299534
H      1.297659    0.868729    1.401554
H     -1.240666    0.593443   -1.922451
H     -4.478414    2.707809    1.309753
H     -0.382064    3.148554    0.786266
H     -3.401369    4.333214    2.571308
