36

C     -1.421155    1.744231    1.274764
C      5.096417   -0.529532   -0.103217
C     -3.512082   -2.591896   -0.001922
C      4.203263   -0.053569   -1.039924
C      4.658049   -0.774181    1.181218
C     -4.066304   -1.326229    0.085649
C     -2.144729   -2.695234   -0.046102
C      2.878049    0.174570   -0.686253
C      3.338903   -0.540880    1.510628
C     -3.282448   -0.206259    0.128026
C     -1.316030   -1.569440   -0.005186
C      0.998541    0.173792    0.998051
C      2.430189   -0.065089    0.588476
C     -1.889176   -0.322806    0.083035
C     -1.447738    1.774041   -1.091774
C     -1.038040    0.873312    0.082453
N     -2.318102    1.397568   -1.946823
O     -0.858419    3.013517   -1.217714
O      0.263531    0.637206   -0.036837
H     -0.732616    2.597504    1.332223
H     -2.428939    2.146363    1.051663
H     -1.508131    1.159765    2.203420
H      6.129902   -0.712206   -0.361685
H     -4.150525   -3.463623   -0.033666
H      4.522325    0.146121   -2.053655
H      5.312166   -1.150018    1.966620
H     -5.143744   -1.190647    0.123083
H     -1.719181   -3.692706   -0.114835
H      2.167793    0.549210   -1.417074
H      2.982799   -0.732458    2.527914
H     -3.672901    0.797860    0.194916
H     -0.257044   -1.775276   -0.072408
H      0.686363   -0.654003    1.597772
H      1.065909    1.051185    1.741433
H     -2.567253    2.035573   -2.725518
H     -1.259644    3.774234   -1.733454
