29

C     -2.163911   -1.977804    0.437885
C      3.563988   -0.052513    0.691592
C      1.072413   -0.095265   -2.423926
C     -0.179418   -0.616697   -2.168854
C      1.727978    0.649854   -1.466508
C     -0.170997    0.321156   -0.011141
C     -2.187689   -0.995969   -0.702924
C      2.936360    1.205487    1.167250
C     -0.829807   -0.424385   -0.965751
C      1.089328    0.849123   -0.261020
C     -3.182116    0.075800   -0.457963
N     -4.181911    0.285390   -1.260144
N      1.777243    1.618466    0.714545
O      3.631033    1.936310    2.120281
O     -3.078720    0.903686    0.651229
H     -2.732027   -1.623294    1.328604
H     -1.104397   -2.225395    0.729890
H     -2.622317   -2.954454    0.161238
H      4.328051    0.227650   -0.074233
H      4.141788   -0.553490    1.508406
H      2.852854   -0.774430    0.284163
H      1.556283   -0.271375   -3.395363
H     -0.707200   -1.203110   -2.908511
H      2.720163    1.074852   -1.641618
H     -0.641778    0.496114    0.942356
H     -2.519071   -1.553013   -1.603163
H     -4.880591    1.030298   -1.097835
H      3.431237    2.905226    2.267707
H     -3.646769    1.741783    0.738646
