42

C     -1.020581    0.505465   -1.543535
C     -3.901882    0.804484   -0.183125
C     -4.136073   -1.395387    0.924342
C      3.208104    3.231752   -0.889221
C      1.979257   -3.652647    0.315329
C      1.861212    3.473518   -1.002144
C      3.666115    2.060064   -0.325959
C      1.710171   -2.983607   -0.857781
C      1.753736   -3.026740    1.523868
C      0.961929    2.514127   -0.537695
C      2.794821    1.103586    0.136893
C      1.213439   -1.683403   -0.819046
C      1.263029   -1.742944    1.539837
C     -0.912307    0.545903   -0.061423
C      1.421825    1.354574    0.019492
C      0.978926   -1.035099    0.368219
C     -1.856963   -0.487437    0.480298
C      0.460422    0.339780    0.502337
N     -3.259091   -0.344640    0.400421
O     -1.399299   -1.515512    1.021828
O      0.330457    0.620050    1.893805
H     -1.868685    1.164390   -1.867098
H     -0.078969    0.860202   -2.023000
H     -1.287133   -0.519686   -1.916005
H     -4.930297    0.962778    0.259898
H     -3.342014    1.740413   -0.099923
H     -4.087886    0.604301   -1.256522
H     -3.603868   -1.990740    1.681750
H     -4.428330   -2.039631    0.085212
H     -5.023356   -0.899931    1.365215
H      3.929315    3.957224   -1.240725
H      2.363587   -4.660786    0.225510
H      1.477505    4.395884   -1.445802
H      4.750694    1.890262   -0.246944
H      1.865303   -3.418346   -1.835410
H      1.970486   -3.566724    2.436174
H     -0.082993    2.787946   -0.661739
H      3.172257    0.194998    0.573362
H      1.012321   -1.177901   -1.746955
H      1.105249   -1.300586    2.525930
H     -1.281022    1.549026    0.309407
H      1.250588    0.781022    2.226705
