29

C      3.614671    1.006325    0.701245
C      2.266581    0.348960    1.002009
C     -2.886586   -0.249609    1.975247
C     -2.308634   -1.349606    1.393967
C     -2.805429    1.010937    1.407464
C     -1.620824   -1.208503    0.203950
C     -2.107571    1.101221    0.218240
C      0.693587    0.313674   -1.506907
C     -1.515631    0.023118   -0.393773
C     -0.791722    0.194852   -1.653619
C      1.343970   -0.837290   -0.888218
N      2.012769   -0.787053    0.191164
O     -1.173876   -0.844608   -2.512659
O      1.232874   -2.075576   -1.509302
H      3.654587    1.399628   -0.315655
H      4.441237    0.310512    0.883405
H      3.717342    1.847856    1.436211
H      1.474229    1.107553    1.008861
H      2.353678   -0.006379    2.070840
H     -3.430635   -0.320498    2.902549
H     -2.408666   -2.304668    1.888127
H     -3.255763    1.889230    1.853111
H     -1.186578   -2.110061   -0.207476
H     -2.055726    2.110687   -0.214641
H      0.904408    1.270804   -0.995406
H      1.109644    0.432175   -2.542304
H     -1.128068    1.136017   -2.182530
H     -2.108686   -0.621373   -2.790741
H      1.964821   -2.788325   -1.423159
