30

C      3.449222    1.914836    0.259960
C     -0.754390   -2.254698   -1.063514
C     -3.030402    2.026220   -0.047256
C     -3.171135    1.009260   -0.946484
C     -1.920815    2.040919    0.760016
C     -2.212309    0.024529   -1.031748
C     -0.956452    1.051855    0.675200
C      1.060052   -0.690163   -1.273967
C      2.655380    0.652112    0.100093
C     -1.068278    0.005820   -0.225882
C      0.362982   -1.630744    0.937277
C     -0.063638   -1.067228   -0.356586
O      2.758150   -0.193428    1.011418
O     -0.023109   -1.113460    1.999022
O      1.184784   -2.730983    0.966965
O      1.851284    0.372921   -0.944380
H      4.386485    1.774525   -0.323700
H      3.740562    2.072722    1.312975
H      2.886507    2.787621   -0.136458
H     -0.743695   -2.017882   -2.146083
H     -0.123503   -3.171805   -0.950680
H     -1.755028   -2.421828   -0.651244
H     -3.771879    2.813264    0.038816
H     -4.038568    0.985266   -1.587481
H     -1.815913    2.846049    1.467285
H     -2.321892   -0.796498   -1.754471
H     -0.085185    1.100433    1.332790
H      1.628235   -1.640276   -1.473325
H      0.560426   -0.435994   -2.257393
H      1.332121   -3.313364    1.804555
