72

C      5.199324   -2.702470   -3.349538
C      4.933193   -2.967845   -1.904421
C      6.092588   -2.665722   -1.010175
C      6.545420   -1.234511   -1.043060
C      5.416171   -0.307844   -0.604509
C      5.853309    1.130356   -0.617277
C      4.707367    2.008173   -0.210665
C      4.246143    1.650005    1.161037
C      3.117899    2.548024    1.639739
C      2.726599    2.108736    3.023110
C      2.244455    0.708911    3.045811
C      1.023972    0.482962    2.168679
C     -0.131979    1.320555    2.600541
C     -7.417286   -3.308745    0.281937
C     -6.727679   -3.536009   -0.893421
C     -7.857340   -2.035816    0.515693
C     -1.323188    1.064684    1.726657
C     -6.505928   -2.512097   -1.772623
C     -7.645287   -0.983729   -0.359516
C     -1.107525    1.391051    0.285917
C     -5.599601    1.500584    0.298576
C     -6.703594   -0.135745   -2.506683
C     -4.307936    2.031170   -1.751079
C     -6.958294   -1.211753   -1.528683
C     -5.312360    1.080536   -1.075544
C     -2.308483    1.149024   -0.564379
O     -4.761430    1.578436    1.172476
O     -2.573792   -0.017262   -0.959680
O     -6.408665    1.041329   -1.895741
O     -3.165980    2.153885   -0.954015
H      4.388039   -2.110057   -3.825076
H      5.191290   -3.699259   -3.883496
H      6.199643   -2.281639   -3.557429
H      4.681172   -4.054545   -1.722240
H      4.021894   -2.393755   -1.600349
H      6.945626   -3.303983   -1.353339
H      5.860830   -3.020472    0.016711
H      6.820381   -1.002501   -2.097777
H      7.366589   -1.081653   -0.329050
H      5.115388   -0.599317    0.436047
H      4.531726   -0.459058   -1.249762
H      6.296671    1.428654   -1.591916
H      6.625848    1.239305    0.206746
H      4.925185    3.089132   -0.336172
H      3.836612    1.806976   -0.905683
H      3.795553    0.628893    1.130749
H      5.084074    1.752872    1.866601
H      2.227485    2.486373    0.989209
H      3.441963    3.623769    1.630526
H      3.676664    2.142670    3.629368
H      2.048859    2.829010    3.524215
H      1.901443    0.423987    4.091765
H      2.988340   -0.054377    2.794625
H      0.716893   -0.580988    2.196814
H      1.261473    0.713238    1.111617
H     -0.466441    1.081331    3.646089
H      0.082156    2.421770    2.508748
H     -7.591809   -4.115202    0.974482
H     -6.375887   -4.526793   -1.095242
H     -8.401373   -1.857832    1.443841
H     -1.691681    0.023170    1.882567
H     -2.195948    1.703613    2.066021
H     -5.962483   -2.686789   -2.702538
H     -8.016736    0.001491   -0.136742
H     -0.281806    0.723152   -0.095205
H     -0.761092    2.416835    0.171525
H     -6.619449    1.773609    0.613939
H     -7.543683   -0.037741   -3.240157
H     -5.798708   -0.439496   -3.109422
H     -3.976537    1.586574   -2.715286
H     -4.750627    3.025772   -1.873704
H     -4.887635    0.054389   -1.063927
