34

C     -4.904064   -0.342087   -0.732480
C     -1.960470    1.395950    1.029531
C     -4.029163   -1.243616   -0.313836
C     -3.433146   -1.226569    1.034459
C      4.879549    0.299427   -1.548207
C      3.965712    0.266933   -2.574352
C     -1.948778   -1.107230    1.037444
C      4.469661    0.300252   -0.256620
C      2.629756    0.235371   -2.262930
C     -1.453376    0.156639    0.370849
C      3.094037    0.267618    0.050461
C      2.153709    0.234745   -0.945101
C      2.729355    0.269351    1.445329
C      0.722650    0.200393   -0.773345
O      1.591100    0.241244    1.880521
O      3.749586    0.306163    2.403816
O      0.015189    0.172315   -1.855543
O     -0.040856    0.191905    0.349067
H     -5.220745    0.462167   -0.079054
H     -5.332527   -0.368575   -1.725698
H     -3.036876    1.577000    0.763322
H     -1.799234    1.420290    2.121367
H     -1.383970    2.257617    0.615907
H     -3.743971   -2.026258   -1.000579
H     -3.689324   -2.197506    1.521683
H     -3.938405   -0.448509    1.645319
H      5.933115    0.323972   -1.834835
H      4.319098    0.266850   -3.614801
H     -1.516237   -2.006657    0.564303
H     -1.609560   -1.124254    2.097669
H      5.214288    0.326477    0.550818
H      1.932419    0.210116   -3.096852
H     -1.875944    0.136116   -0.672035
H      3.517424    0.572349    3.374209
