37

C     -3.943525   -0.882631    2.285838
C     -3.275721    1.193109   -1.415904
C     -0.979504    1.879445   -1.868485
C     -3.052014   -0.159383    1.348141
C      5.090811   -1.085396   -0.048700
C      4.549619   -1.636071   -1.183715
C     -2.314338   -0.791287    0.451557
C      4.320399   -0.414943    0.854248
C      3.204008   -1.477934   -1.360781
C     -1.897916    1.323117   -0.802029
C      2.936406   -0.259825    0.659128
C      2.361036   -0.793731   -0.458374
C     -1.413377   -0.082758   -0.498418
C      2.162299    0.458589    1.646814
C      0.951939   -0.700192   -0.770563
O      0.962213    0.716403    1.697461
O      2.879646    0.967350    2.762958
O      0.588158   -1.269846   -1.878217
O     -0.075492   -0.124776   -0.120986
H     -4.651963   -0.180000    2.765821
H     -4.518972   -1.676189    1.767774
H     -3.354580   -1.364785    3.095392
H     -3.364227    1.918279   -2.269699
H     -3.362377    0.186218   -1.903085
H     -4.093837    1.282915   -0.704351
H     -1.412534    2.836560   -2.219223
H     -0.947352    1.181674   -2.728030
H      0.028207    2.117782   -1.468405
H     -3.000081    0.910060    1.395261
H      6.164353   -1.199928    0.112685
H      5.177042   -2.174848   -1.906519
H     -2.330491   -1.894356    0.363855
H      4.754478    0.021675    1.755851
H      2.754853   -1.905170   -2.251163
H     -1.880266    1.984075    0.071096
H     -1.499127   -0.630435   -1.474577
H      2.482230    1.727234    3.336651
