38

C     -3.439431   -1.551910   -0.138411
C      4.986847   -0.777103   -1.277211
C     -2.358019   -1.979649    0.860635
C     -2.684693   -0.904766   -1.282918
C      3.880010   -0.300831   -1.940905
C      4.965439   -0.824871    0.100424
C     -1.385011   -0.866103    1.122597
C     -2.285747    0.470102   -0.805939
C      2.769588    0.120786   -1.235320
C      3.835153   -0.394693    0.793792
C     -1.840656    0.468719    0.610368
C      2.727443    0.081492    0.140853
C     -0.677264    1.434515    0.831614
C      1.551287    0.529626    0.849650
C     -1.029370    2.798536    0.353172
N      0.529199    0.971016    0.197705
O      1.548112    0.473976    2.238940
O     -0.336030    3.420683   -0.490949
O     -2.162575    3.434624    0.840300
Na     0.000000    0.000000    0.000000
H     -4.029159   -2.417579   -0.435132
H     -4.032523   -0.771223    0.400316
H      5.879948   -1.117953   -1.802144
H     -2.815349   -2.389455    1.772808
H     -1.829648   -2.833023    0.361249
H     -3.385103   -0.867735   -2.139321
H     -1.751342   -1.477413   -1.537825
H      3.894634   -0.262386   -3.023869
H      5.838253   -1.199960    0.611844
H     -0.416650   -1.098308    0.643130
H     -1.286231   -0.772411    2.231443
H     -3.189254    1.126700   -0.976130
H     -1.519178    0.874862   -1.511749
H      1.909728    0.491894   -1.778158
H      3.830571   -0.436523    1.860030
H     -2.675462    0.806314    1.256825
H     -0.463338    1.493004    1.925169
H     -2.554179    4.247047    0.373117
