74

C     -8.439608    2.481815    0.720853
C      8.818361   -1.006434    0.149453
C      1.663198   -0.398700   -0.856143
C     -8.338546    1.791670   -0.611633
C      9.177211    0.235850    0.886077
C     -7.679175    0.398729   -0.399655
C      8.963991    1.507074    0.167435
C     -7.608798   -0.224798   -1.734469
C      7.598198    1.893803   -0.232374
C     -7.101737   -1.575280   -1.936345
C      6.849519    1.004809   -1.148600
C     -5.734772   -2.001860   -1.631316
C      5.479633    1.533723   -1.529118
C     -5.277626   -1.927863   -0.220783
C      4.556834    1.746698   -0.367647
C     -3.836296   -2.484541   -0.095645
C      4.329606    0.456289    0.389427
C     -3.422373   -2.402439    1.351112
C      3.389910    0.610436    1.531345
C     -3.441132   -0.996432    1.830992
C      1.989909    0.993824    1.243665
C     -2.543430   -0.067553    1.079249
C      1.188466   -0.006608    0.500128
C     -1.116690   -0.416134    1.110294
O     -0.740804   -1.422724    1.738770
O     -0.196695    0.351194    0.457576
H     -9.315918    3.181949    0.715407
H     -8.676459    1.722994    1.518225
H     -7.550431    3.076893    0.980072
H      7.894881   -1.521845    0.528336
H      9.611453   -1.805161    0.283490
H      8.772444   -0.853029   -0.939764
H      2.210449    0.401184   -1.348338
H      0.719546   -0.596635   -1.482729
H      2.157437   -1.400194   -0.870522
H     -9.335651    1.603601   -1.007975
H     -7.708955    2.333201   -1.333948
H     10.265759    0.124293    1.187370
H      8.619421    0.200205    1.876008
H     -8.342758   -0.139739    0.301188
H     -6.731839    0.671959    0.083342
H      9.646917    1.502922   -0.746125
H      9.388567    2.354309    0.782223
H     -7.141238    0.535540   -2.438776
H     -8.695312   -0.233479   -2.117293
H      6.946143    2.071130    0.676915
H      7.658357    2.914248   -0.698057
H     -7.325090   -1.841989   -3.037607
H     -7.869058   -2.272473   -1.407343
H      7.469374    0.811594   -2.045997
H      6.634064    0.026880   -0.650402
H     -5.610066   -3.086204   -1.976789
H     -4.987207   -1.485220   -2.330375
H      5.612860    2.461270   -2.134117
H      5.067691    0.774786   -2.253599
H     -5.256686   -0.867443    0.086408
H     -5.965064   -2.497655    0.423048
H      5.042798    2.494802    0.308821
H      3.597501    2.116785   -0.750221
H     -3.861955   -3.514808   -0.474756
H     -3.186430   -1.895782   -0.752401
H      5.341950    0.235739    0.870600
H      4.161706   -0.412582   -0.255491
H     -4.208811   -3.007742    1.901685
H     -2.487574   -2.940782    1.553647
H      3.885701    1.295120    2.269582
H      3.377533   -0.402794    2.051683
H     -4.451280   -0.552974    1.877632
H     -3.120941   -1.023533    2.923351
H      2.047558    1.959118    0.641136
H      1.500576    1.326756    2.191203
H     -2.732152    0.966761    1.493640
H     -2.827665    0.022245    0.004636
H      1.230706   -0.950519    1.130330
