54

C      5.955542    1.676402    2.644706
C     -2.186075   -2.796555    1.798304
C      4.773457    1.244417    1.728555
C      5.214223    1.228243    0.325917
C      4.280924    0.875168   -0.759679
C      3.756619   -0.500161   -0.792864
C      2.964088   -1.018968    0.321972
C      1.734948   -0.271797    0.720001
C      0.698395   -0.144332   -0.337629
C      0.153235   -1.433870   -0.859722
C     -6.339853    0.744001   -2.867947
C     -5.717045   -0.471522   -2.798024
C     -0.503844   -2.305448    0.134026
C     -5.973192    1.726565   -2.011647
C     -4.743381   -0.660306   -1.867150
C     -1.693551   -1.706374    0.830631
C     -4.956877    1.529560   -1.039991
C     -4.324891    0.329438   -0.953002
C     -4.634359    2.633955   -0.172464
C     -3.280838    0.013898   -0.008166
O     -5.314567    3.725364   -0.361513
O     -3.731717    2.750425    0.828856
O     -2.763765    0.711512    0.870537
O     -2.705058   -1.296887   -0.033922
H      5.543341    2.079145    3.588663
H      6.592629    0.791408    2.831322
H      6.502236    2.478840    2.139430
H     -2.857448   -2.370080    2.561840
H     -2.651957   -3.625776    1.220815
H     -1.311021   -3.213354    2.331025
H      4.365680    0.336674    2.135365
H      4.006039    2.056288    1.941112
H      6.153752    0.579947    0.290654
H      5.684167    2.261773    0.138548
H      4.865396    1.017444   -1.741939
H      3.441086    1.646624   -0.804728
H      4.698521   -1.169538   -0.835932
H      3.310135   -0.756026   -1.807223
H      2.603587   -2.077766   -0.079661
H      3.581503   -1.360395    1.148959
H      2.030318    0.757265    1.011967
H      1.325881   -0.737571    1.645649
H      1.111244    0.480290   -1.155426
H     -0.149937    0.433888    0.085900
H      0.994462   -1.987392   -1.327141
H     -0.566322   -1.243463   -1.687005
H     -7.120612    0.889025   -3.617423
H     -5.999829   -1.275961   -3.480866
H      0.167350   -2.703306    0.920771
H     -0.884326   -3.209306   -0.409769
H     -6.464472    2.685017   -2.067010
H     -4.247701   -1.608321   -1.802229
H     -1.439670   -0.855593    1.496109
H     -3.946452    3.117494    1.741114
