40

C     -2.559453    0.480976   -3.986511
C     -2.425471   -1.976901    0.459793
C     -3.618332    0.234926    0.426059
C     -1.808734   -0.250196    2.057868
C     -2.149102    0.782716   -2.576735
C      4.836307   -1.170495    0.962055
C      3.784649   -1.977959    0.601807
C     -1.728630   -0.166061   -1.747766
C      4.667143    0.180698    1.102039
C      2.587947   -1.368813    0.396053
C      3.418233    0.804097    0.885682
C      2.363940    0.013411    0.527005
C     -1.313416    0.086377   -0.347157
C      3.382263    2.234495    1.069950
C      1.047958    0.542168    0.280816
C     -2.303531   -0.482490    0.646397
O      2.399005    2.960159    0.934850
O      4.568423    2.907571    1.441581
O      0.663061    1.710573    0.343205
O      0.002181   -0.349133   -0.088699
H     -1.999490    1.145564   -4.661930
H     -3.658307    0.715253   -4.034715
H     -2.350493   -0.559009   -4.244525
H     -1.417794   -2.397072    0.224800
H     -3.076597   -2.237225   -0.394890
H     -2.816287   -2.480973    1.351177
H     -4.312361   -0.358001   -0.203430
H     -3.443755    1.196651   -0.055785
H     -4.047920    0.431814    1.443909
H     -2.644776   -0.090257    2.772026
H     -1.178848    0.661662    2.096511
H     -1.207849   -1.105780    2.428570
H     -2.196727    1.799442   -2.225668
H      5.809247   -1.633729    1.133601
H      3.897777   -3.051965    0.485443
H     -1.704788   -1.182806   -2.171952
H      5.529769    0.805800    1.392563
H      1.736194   -1.958181    0.112920
H     -1.326863    1.185163   -0.204769
H      4.595428    3.917527    1.367853
