74

C      8.592323    1.315215   -2.796813
C     -9.853440    2.005588   -1.865711
C     -1.264015   -0.397118    3.441820
C      9.661764    1.089059   -1.791814
C     -8.639308    1.364149   -2.529542
C      9.242072    0.544256   -0.485364
C     -8.766567   -0.127938   -2.370632
C      8.585733   -0.784399   -0.437415
C     -8.819900   -0.484487   -0.919717
C      7.260455   -0.914271   -1.072757
C     -7.573762   -0.032417   -0.221512
C      6.186896   -0.064034   -0.434293
C     -6.360560   -0.696390   -0.824377
C      5.967563   -0.451738    1.018557
C     -5.086588   -0.246756   -0.119970
C      4.887898    0.452996    1.569900
C     -5.081041   -0.558601    1.339766
C      3.582179    0.317056    0.802225
C     -3.767461   -0.072571    1.929771
C      3.080180   -1.081983    0.868658
C     -2.582698   -0.738045    1.317250
C      1.813493   -1.242410    0.099411
C     -1.323891   -0.181186    1.958801
C      0.765539   -0.372376    0.644848
O      0.791348    0.852481    0.444945
O     -0.255910   -0.923599    1.383899
H      7.646893    1.547745   -2.331346
H      8.571909    0.520987   -3.582565
H      8.865293    2.282783   -3.356320
H     -9.649204    2.260110   -0.818376
H    -10.133197    2.941380   -2.405866
H    -10.723845    1.305141   -1.987559
H     -0.214302   -0.246289    3.781503
H     -1.864859    0.371008    4.010645
H     -1.549457   -1.420415    3.748034
H     10.495139    0.435171   -2.223754
H     10.212838    2.082313   -1.658871
H     -7.738997    1.781653   -2.076230
H     -8.735250    1.647764   -3.615964
H      8.600350    1.318483    0.044160
H     10.194842    0.441770    0.133528
H     -9.739483   -0.412997   -2.862940
H     -7.925690   -0.667246   -2.857740
H      9.295581   -1.493579   -0.982986
H      8.583605   -1.220870    0.598871
H     -8.985387   -1.576720   -0.782801
H     -9.682322    0.056332   -0.459163
H      7.318760   -0.790384   -2.153912
H      6.941603   -1.999786   -0.919580
H     -7.409907    1.060860   -0.244743
H     -7.669571   -0.286305    0.864456
H      6.504910    0.993527   -0.439583
H      5.246584   -0.148185   -0.996425
H     -6.212763   -0.416916   -1.885075
H     -6.426711   -1.797684   -0.745301
H      6.862114   -0.290860    1.631390
H      5.716837   -1.532829    1.118766
H     -4.943613    0.853997   -0.231067
H     -4.262170   -0.723302   -0.685801
H      4.687120    0.287608    2.634762
H      5.242540    1.490856    1.416061
H     -5.144706   -1.647023    1.555579
H     -5.881630    0.028134    1.833960
H      2.858001    0.940873    1.411778
H      3.600784    0.781675   -0.183805
H     -3.760941    1.019887    1.827867
H     -3.723583   -0.294299    3.032311
H      3.802083   -1.835335    0.490245
H      2.955041   -1.331335    1.955598
H     -2.660377   -1.833598    1.458486
H     -2.474001   -0.580023    0.224231
H      1.466079   -2.315838    0.091427
H      1.972174   -1.029130   -1.001299
H     -1.171413    0.870412    1.729925
