34

C      4.779746   -0.451421    1.375852
C      1.708833    2.226904   -1.326326
C      3.763525   -0.415382    0.268470
C      2.071297    0.970939   -1.413615
C     -4.747617    0.996177    0.564766
C     -3.621954    1.762569    0.733894
C      2.391962    0.004378    0.766407
C     -4.621014   -0.266542    0.080566
C     -2.390344    1.255012    0.416775
C      1.482076   -0.006310   -0.455514
C     -3.341509   -0.783041   -0.244855
C     -2.227509   -0.050297   -0.087072
C     -3.352446   -2.136438   -0.748621
C     -0.874258   -0.483027   -0.388925
O     -4.471431   -2.761529   -0.865712
O     -2.267340   -2.870450   -1.135045
O     -0.532337   -1.586476   -0.836127
O      0.191085    0.418100   -0.163210
H      5.558723    0.313758    1.128110
H      5.305157   -1.435904    1.347966
H      4.369199   -0.214164    2.362725
H      1.005050    2.540488   -0.582301
H      2.117553    2.953350   -2.004046
H      4.057796    0.249632   -0.567838
H      3.625233   -1.433880   -0.178560
H      2.778524    0.660189   -2.162474
H     -5.747230    1.391028    0.815766
H     -3.725584    2.786814    1.126742
H      2.418991    1.002716    1.238805
H      2.033371   -0.748200    1.472281
H     -5.517429   -0.845664   -0.042473
H     -1.495477    1.863442    0.550915
H      1.535023   -1.043770   -0.848133
H     -2.259663   -3.863002   -1.338354
