34

C     -1.091277    2.070549    0.683502
C      5.063438   -1.057147   -0.037871
C      4.796850   -0.756371   -1.354570
C      4.088000   -0.909115    0.910868
C      3.532145   -0.308438   -1.674339
C     -3.794010    1.171485   -1.278672
C     -4.590254    0.424727   -0.245356
C     -0.771398    0.609754    0.917371
C      2.820004   -0.461544    0.599522
C      2.532456   -0.151078   -0.736186
C      1.607677   -0.208947    1.363317
C      1.145764    0.291876   -0.794879
C     -1.644570   -1.655244    0.400085
C     -1.839393   -0.215894    0.249760
N      0.574043    0.255336    0.507508
O      1.546408   -0.396143    2.612533
O      0.570463    0.646533   -1.852902
O     -0.675522   -2.111467    1.027330
O     -2.551790   -2.533456   -0.163680
S     -2.213887    0.305525   -1.429718
S     -3.404497    0.199429    1.117327
H     -1.348999    2.264770   -0.366791
H     -1.831794    2.454812    1.411293
H     -0.125602    2.628636    0.861502
H      6.041053   -1.408068    0.237587
H      5.525468   -0.853330   -2.145699
H      4.319637   -1.149931    1.930749
H      3.331897   -0.075202   -2.707605
H     -4.317554    1.233691   -2.252038
H     -3.683701    2.213253   -0.918811
H     -4.991922   -0.539564   -0.603303
H     -5.386504    1.089580    0.141822
H     -0.841994    0.454848    2.017170
H     -2.390632   -3.523863   -0.266760
