34

C     -0.861881    2.507924   -0.798308
C      4.626738   -1.665783   -0.273415
C      4.507766   -1.253738    1.043334
C      3.636428   -1.393303   -1.202348
C      3.373495   -0.568126    1.385919
C     -2.353089   -1.858931    1.325655
C     -3.070016   -0.721195    1.996199
C     -0.848367    1.015981   -1.024053
C      2.486742   -0.696436   -0.847812
C      2.385542   -0.295233    0.463178
C      1.302213   -0.268076   -1.572939
C      1.088236    0.414483    0.574249
C     -3.246492    1.049808   -0.912504
C     -2.013734    0.421486   -0.311189
N      0.425509    0.431685   -0.668233
O      1.039833   -0.449704   -2.774968
O      0.692029    0.911808    1.660989
O     -4.073605    0.311031   -1.471817
O     -3.413242    2.437189   -0.818943
S     -2.125712   -1.356141   -0.417983
S     -2.093885    0.735580    1.448324
H     -1.315687    3.031583   -1.638198
H     -1.336549    2.742641    0.194690
H      0.212350    2.829369   -0.771017
H      5.532744   -2.210171   -0.534792
H      5.301845   -1.475912    1.774256
H      3.746526   -1.718160   -2.208282
H      3.248513   -0.233978    2.397525
H     -2.975570   -2.783231    1.380276
H     -1.371073   -2.016949    1.806402
H     -3.021377   -0.862502    3.074635
H     -4.104478   -0.660535    1.587925
H     -1.044649    0.857956   -2.118056
H     -4.337103    2.789579   -1.055763
