47

C     -5.609850    1.453842   -1.828949
C      6.345930    0.358108   -1.081053
C      2.725410    2.007857    1.120197
C     -4.953693    1.481897   -0.489582
C      5.162573   -0.550543   -1.374952
C     -4.413933    0.148681   -0.049744
C     -3.384410   -0.415646   -0.965505
C     -2.935279   -1.755506   -0.396078
C     -2.344742   -1.613363    0.975669
C     -1.143770   -0.726214    1.037819
C     -0.055937   -1.254159    0.163373
C      1.183140   -0.389132    0.192652
C      1.768669   -0.272241    1.560087
C      2.999010    0.590230    1.588635
C      4.119682    0.059514    0.776937
O      5.188552   -0.336542    1.327895
O      4.068126   -0.034596   -0.611169
H     -6.239393    0.547039   -1.971792
H     -4.899180    1.503592   -2.676201
H     -6.300227    2.317693   -1.936284
H      7.021854    0.425009   -1.961362
H      5.965010    1.377239   -0.899577
H      6.942299   -0.042212   -0.232694
H      3.552461    2.651644    1.503635
H      1.776529    2.379690    1.516246
H      2.774977    2.088362    0.003086
H     -4.167175    2.259448   -0.476830
H     -5.710814    1.798150    0.261780
H      5.413257   -1.588254   -1.079026
H      4.855329   -0.477676   -2.440067
H     -5.227734   -0.576206    0.077110
H     -3.979968    0.317277    0.979256
H     -2.547039    0.266248   -1.096685
H     -3.899408   -0.665601   -1.932538
H     -3.775119   -2.466778   -0.325228
H     -2.175611   -2.246374   -1.049546
H     -1.992461   -2.647583    1.263373
H     -3.111339   -1.362242    1.740495
H     -1.402073    0.310955    0.739075
H     -0.790228   -0.715738    2.086537
H      0.193341   -2.293091    0.371794
H     -0.424996   -1.213822   -0.900726
H      1.931524   -0.941270   -0.448676
H      1.033219    0.592629   -0.268078
H      2.060514   -1.265967    1.953719
H      1.020112    0.212375    2.213607
H      3.382856    0.703278    2.645305
