41

C      4.652946   -1.232308    0.307242
C     -0.539424    2.283543    1.067043
C     -2.515430    1.320932   -0.971922
C      3.393531   -1.443259   -0.481916
C      3.131837   -0.369004   -1.489349
C      2.991441    0.995328   -0.876108
C      1.859271    1.086937    0.113611
C     -4.239267   -1.703620    1.174802
C      0.516262    0.767965   -0.531753
C     -3.728394   -1.781080   -0.225652
C     -3.196431   -1.120150    2.113212
C     -0.529120    0.882574    0.511665
C     -1.908520    0.481512    0.074630
S     -1.974866   -1.286315   -0.348038
S     -2.947936    0.617577    1.588358
H      5.437070   -0.767543   -0.315754
H      4.458195   -0.673964    1.241608
H      5.036628   -2.231803    0.600504
H     -1.575462    2.656756    1.244742
H     -0.021542    2.343396    2.059323
H     -0.053886    2.990924    0.367700
H     -3.589352    1.558837   -0.723165
H     -2.578650    0.746614   -1.930738
H     -2.032969    2.278719   -1.173862
H      3.420933   -2.428978   -0.987544
H      2.516802   -1.504498    0.223407
H      2.265441   -0.673599   -2.097214
H      4.003750   -0.329963   -2.174494
H      3.925076    1.199296   -0.311808
H      2.905459    1.795576   -1.632705
H      2.070082    0.417851    0.978757
H      1.872011    2.120595    0.518841
H     -5.126260   -1.032634    1.249133
H     -4.580842   -2.711060    1.551573
H      0.347505    1.596215   -1.279008
H      0.544994   -0.159126   -1.097546
H     -4.354040   -1.148810   -0.901422
H     -3.792957   -2.837756   -0.566097
H     -2.266018   -1.714825    1.940274
H     -3.507504   -1.196090    3.153652
H     -0.290366    0.205237    1.382478
