48

C      6.365200    0.093882   -0.096312
C     -0.064847   -2.019572   -0.246812
C      4.920413    0.549524   -0.392625
C      4.015328   -0.277360    0.478639
C      2.554146    0.048701    0.348170
C     -2.677340    3.969546    0.266967
C      2.053289   -0.237684   -1.027642
C     -3.612815    3.028248   -0.101866
C     -1.382109    3.566147    0.554601
C     -3.694448   -2.698365    0.362121
C      0.585412    0.148225   -1.182585
C     -3.233715    1.687989   -0.179332
C     -1.028928    2.219218    0.470281
C     -3.543336   -1.889516    1.625188
C     -4.047209   -1.824034   -0.799047
C     -0.191412   -0.515525   -0.124141
C     -1.933453    1.268536    0.106255
C     -1.651536   -0.176879    0.003546
S     -2.125039   -0.837550    1.653117
S     -2.621165   -0.885041   -1.310713
H      6.350018   -0.074214    1.026904
H      7.110997    0.811765   -0.421805
H      6.507791   -0.920887   -0.516196
H     -0.881719   -2.346234   -0.968364
H      0.859540   -2.375908   -0.687336
H     -0.287746   -2.445508    0.758844
H      4.732501    0.347525   -1.453989
H      4.884568    1.614105   -0.104784
H      4.357049   -0.146362    1.538553
H      4.195604   -1.375989    0.267409
H      2.367958    1.105582    0.577550
H      2.070786   -0.625656    1.118897
H     -2.978952    5.019450    0.322777
H      2.601177    0.487009   -1.704892
H      2.289149   -1.225671   -1.439528
H     -4.620712    3.339424   -0.315617
H     -0.659877    4.304288    0.830880
H     -4.549670   -3.389960    0.539007
H     -2.788637   -3.260946    0.149205
H      0.292856   -0.371568   -2.162436
H      0.479882    1.201574   -1.354948
H     -4.021114    1.003599   -0.471258
H      0.011147    1.982737    0.725571
H     -3.483280   -2.608137    2.468781
H     -4.453764   -1.283480    1.809206
H     -4.345260   -2.517884   -1.626423
H     -4.943154   -1.212087   -0.606745
H      0.216427   -0.255058    0.913917
