26

C      3.421025   -0.724581   -0.032960
C      1.681086    1.430625   -0.890362
C      2.170044   -0.406407    0.722177
C     -3.350232   -0.512170    0.113223
C     -2.223126   -1.461869    0.284843
C     -2.980739    0.880652   -0.221346
C      1.149387    0.156714   -0.235086
C     -0.124256    0.561357    0.487339
S     -0.897721   -0.839403    1.329638
S     -1.298098    1.086137   -0.819912
H      3.172241   -1.011134   -1.081355
H      3.960404   -1.571413    0.483573
H      4.083742    0.174084   -0.038524
H      1.317075    1.444006   -1.939773
H      2.768741    1.470010   -0.906939
H      1.287431    2.341210   -0.370820
H      1.755332   -1.365767    1.104842
H      2.323458    0.335811    1.516088
H     -4.015766   -0.903859   -0.687983
H     -3.983048   -0.513866    1.040231
H     -1.814132   -1.851888   -0.680399
H     -2.634263   -2.380527    0.798580
H     -3.662403    1.311487   -0.996271
H     -3.111587    1.545932    0.675467
H      0.884701   -0.585346   -1.018189
H      0.120706    1.390207    1.160029
