41

C      5.043100    0.892376    0.086812
C     -3.127317   -2.882719   -0.418379
C     -0.978742   -2.423058    1.389806
C      3.530048    0.959331   -0.140432
C     -2.685435   -1.469221   -0.053538
C      3.062305   -0.461465   -0.303807
C      1.590684   -0.587064   -0.539000
C     -2.080454    3.028407    0.476510
C      0.791386   -0.008388    0.618554
C     -2.426022    2.068133   -0.604776
C     -1.162014    2.507861    1.526627
C     -1.204696   -1.500285    0.256570
C     -0.676815   -0.120765    0.414289
S     -1.119258    0.897929   -1.025537
S     -1.467053    0.744084    1.833217
H      5.239671    0.319301    1.013008
H      5.421617    1.934020    0.206233
H      5.508984    0.420240   -0.791929
H     -4.177217   -2.899588   -0.757421
H     -2.482970   -3.275277   -1.215936
H     -3.046838   -3.502102    0.510146
H     -1.862373   -2.499613    2.090451
H     -0.825861   -3.489922    1.048794
H     -0.118621   -2.190477    2.028495
H      3.036030    1.424818    0.735388
H      3.371005    1.529890   -1.083363
H     -3.211029   -1.124176    0.859606
H     -2.928356   -0.752965   -0.862016
H      3.601303   -0.948959   -1.143039
H      3.351255   -1.022235    0.625390
H      1.310996   -1.608434   -0.792500
H      1.357341    0.034764   -1.450363
H     -3.023476    3.412227    0.965807
H     -1.588459    3.922386   -0.006295
H      1.148265   -0.380490    1.591816
H      1.033518    1.091319    0.616876
H     -3.391917    1.539948   -0.364306
H     -2.669369    2.614495   -1.564379
H     -1.331099    3.058553    2.471373
H     -0.111247    2.683874    1.162561
H     -0.700874   -1.936753   -0.646193
