29

C     -3.532063    0.596747    0.068612
C     -0.959637    0.451937    1.535225
C     -0.256018   -1.371683   -1.752446
C     -2.204016    0.357685   -0.595096
C      3.322617    0.370650   -0.089396
C      2.163780    1.283542    0.210731
C      2.896462   -1.053253   -0.355127
C     -1.221361   -0.355154    0.295096
C      0.036294   -0.564959   -0.524403
S      0.785647    1.032595   -0.960547
S      1.312629   -1.446190    0.456049
H     -3.618041    0.112097    1.051575
H     -4.379002    0.277939   -0.551549
H     -3.633587    1.693641    0.252375
H     -1.888617    0.523357    2.122081
H     -0.192691    0.013177    2.175410
H     -0.667653    1.472243    1.214240
H     -0.716269   -0.744530   -2.525014
H      0.720679   -1.777008   -2.132419
H     -0.893409   -2.240137   -1.473280
H     -2.409726   -0.334281   -1.463319
H     -1.736298    1.302724   -0.929590
H      3.862561    0.820226   -0.965438
H      3.996089    0.401088    0.796613
H      2.534425    2.318008    0.174309
H      1.779354    1.078724    1.234728
H      3.703794   -1.727014   -0.054679
H      2.790644   -1.143237   -1.473973
H     -1.596587   -1.348932    0.603450
