41

C      5.007788   -0.208789   -0.033735
C     -2.396544   -3.063630   -1.175727
C     -0.982947   -2.139721    1.304213
C      3.558252    0.008881    0.417910
C     -1.503607   -1.845650   -1.138591
C      2.904332    0.840576   -0.635568
C      1.460813    1.138175   -0.307840
C     -2.739495    2.699954    0.776616
C      0.723722   -0.169120   -0.197241
C     -3.038813    1.791032   -0.369944
C     -1.249171    2.740010    1.039364
C     -1.483829   -1.212417    0.237105
C     -0.734190    0.065564    0.122364
S     -1.546128    1.096417   -1.134096
S     -0.802470    1.064327    1.652157
H      5.000155   -0.428482   -1.117323
H      5.570568    0.739955    0.156806
H      5.453165   -1.029824    0.530322
H     -2.055191   -3.814388   -0.457434
H     -3.464722   -2.753067   -1.020280
H     -2.286072   -3.504198   -2.189462
H     -1.812168   -2.554141    1.924906
H     -0.472775   -3.008942    0.808788
H     -0.241966   -1.605914    1.930851
H      3.530178    0.503109    1.405997
H      3.106872   -0.999499    0.489557
H     -0.483581   -2.200383   -1.399520
H     -1.872768   -1.091940   -1.847764
H      3.436679    1.784654   -0.827374
H      2.957976    0.269685   -1.609236
H      1.438884    1.698474    0.657747
H      1.010648    1.784981   -1.076949
H     -3.148702    3.725880    0.615158
H     -3.218461    2.344346    1.726120
H      1.126751   -0.698939    0.711658
H      0.898577   -0.731742   -1.117868
H     -3.707252    0.944933   -0.043403
H     -3.656729    2.362840   -1.109016
H     -0.763523    2.940914    0.061231
H     -0.961945    3.512053    1.761176
H     -2.562312   -0.995975    0.478323
