29

C     -3.600236    0.104022    0.002153
C     -1.083003    1.306556    1.081240
C     -0.065049   -0.733767   -1.960623
C     -2.230496   -0.471868   -0.252116
C      3.245205   -0.201031    0.827805
C      2.041457   -0.600093    1.597745
C      3.002236    0.154591   -0.598241
C     -1.155373    0.599603   -0.225389
C      0.135545   -0.056263   -0.630391
S      0.706625   -1.268923    0.584937
S      1.486387    1.140388   -0.823031
H     -4.334529   -0.702204   -0.269576
H     -3.735880    0.256976    1.107155
H     -3.822421    1.003300   -0.578627
H     -0.434290    2.195692    0.965959
H     -2.080261    1.663350    1.360184
H     -0.716869    0.603208    1.853747
H     -0.476692   -1.740000   -1.875580
H      0.937955   -0.814655   -2.472527
H     -0.688617   -0.067623   -2.600106
H     -2.008549   -1.156564    0.605159
H     -2.252540   -0.976332   -1.218739
H      4.007126   -1.006909    0.858161
H      3.715379    0.685872    1.320755
H      2.326410   -1.379477    2.335213
H      1.664755    0.277932    2.177646
H      2.938254   -0.815255   -1.173175
H      3.892549    0.669276   -0.990253
H     -1.415080    1.330196   -1.009486
