56

C     -0.612953   -0.558783   -2.285921
C      1.736026    0.039329   -1.822838
C     -5.075151   -4.016672    1.208874
C     -2.683441    4.812385   -0.649278
C      7.228090    0.773427    0.823909
C     -5.139403   -2.973159    0.325889
C     -3.885715   -4.287710    1.834110
C     -1.787982    4.016915   -1.308460
C     -3.488997    4.227026    0.286088
C      6.923547   -0.506342    0.433615
C      6.199362    1.618178    1.213356
C     -4.002603   -2.236141    0.101450
C     -2.766556   -3.532008    1.590263
C     -1.682544    2.642001   -1.048673
C     -3.379935    2.894391    0.533096
C      5.618318   -0.966615    0.421418
C      4.893147    1.170768    1.205516
C      0.851900    0.070270    1.250117
C      0.502070   -0.627325   -1.205562
C     -2.782432   -2.438976    0.685064
C     -2.464118    2.030403   -0.125557
C      4.600952   -0.112109    0.812873
C      0.039834    0.041491    0.006377
C     -1.585967   -1.656500    0.574913
C     -2.409851    0.664384    0.318667
C      3.208949   -0.586919    0.805191
N     -1.379709   -0.272406    0.283096
O     -0.476288   -2.324635    0.775047
O     -3.546995    0.269027    0.847168
O      2.922094   -1.748626    0.452022
O      2.204962    0.258692    1.192287
H     -0.351838    0.236780   -2.998275
H     -1.569872   -0.268052   -1.802923
H     -0.682364   -1.548928   -2.724526
H      1.412991    0.382384   -2.848366
H      2.495271   -0.717206   -2.007889
H      2.041364    0.948402   -1.299046
H     -5.969323   -4.594552    1.384012
H     -2.766017    5.870968   -0.847142
H      8.250520    1.117169    0.827913
H     -6.053704   -2.717959   -0.193257
H     -3.812554   -5.107656    2.533909
H     -1.144873    4.455824   -2.047712
H     -4.215568    4.846322    0.826118
H      7.755861   -1.150148    0.131626
H      6.456516    2.627829    1.519461
H     -4.088522   -1.474034   -0.658963
H     -1.819623   -3.728050    2.073867
H     -0.987705    2.116941   -1.669324
H     -4.030835    2.474391    1.279291
H      5.393071   -1.963667    0.116057
H      4.089330    1.838204    1.512251
H      0.439202    0.955854    1.858719
H      0.612242   -0.780007    1.950167
H      0.734344   -1.683226   -1.084716
H      0.033476    1.178655   -0.256063
