38

C      5.411581   -0.220822   -1.347675
C     -3.293608   -2.485031   -0.578995
C     -3.455272    3.216626    1.501219
C      3.995734    0.232749   -1.019250
C     -3.513539   -0.992884   -0.714387
C      3.720326   -0.136321    0.410249
C      2.350174    0.254615    0.871637
C      1.262750   -0.408102    0.051843
C     -0.088834    0.049757    0.594738
C     -1.157680   -0.622823   -0.236972
C     -3.178517    1.770111    1.418151
C     -2.542779   -0.259150    0.190698
O     -3.285125    1.072106    2.456007
O     -2.806632    1.100048    0.285874
H      5.893926    0.457686   -2.081806
H      5.991902   -0.239034   -0.416616
H      5.334615   -1.259030   -1.751408
H     -2.469428   -2.837249   -1.234571
H     -4.216537   -3.071001   -0.689040
H     -2.924753   -2.647570    0.474997
H     -2.583275    3.803711    1.867146
H     -3.756496    3.595975    0.488256
H     -4.289617    3.428418    2.211900
H      3.261773   -0.163107   -1.723794
H      3.986440    1.335168   -1.105609
H     -4.535650   -0.781916   -0.314343
H     -3.469197   -0.652041   -1.753729
H      3.839124   -1.227378    0.589508
H      4.453778    0.376209    1.061869
H      2.213380    1.345534    0.937038
H      2.231979   -0.133978    1.911452
H      1.344391   -0.176007   -1.028488
H      1.340221   -1.509782    0.163187
H     -0.177608   -0.386789    1.625877
H     -0.170603    1.132060    0.638236
H     -1.046428   -1.725190   -0.013141
H     -0.978740   -0.538069   -1.319163
H     -2.691776   -0.697499    1.211884
