48

C      5.404008    0.125793    1.288953
C      1.569727   -2.777284    1.137790
C      4.770244    0.989265    0.243484
C      0.154886   -2.343761    0.896165
C      3.292794    0.562228    0.053631
C      2.732111    1.463022   -0.997382
C      1.323153    1.343322   -1.363066
C      0.728792    0.148996   -1.964272
C     -5.910478    1.728942    0.914460
C     -4.899799    2.287638    1.650818
C      0.758745   -1.121765   -1.192888
C     -5.595804    0.681973    0.109900
C     -3.619836    1.799763    1.571097
C      0.089202   -1.014598    0.138783
C     -4.275560    0.157633    0.009822
C     -3.265228    0.713133    0.743323
C     -4.057529   -0.955573   -0.874046
C     -1.882780    0.269793    0.726331
O     -3.008839   -1.527456   -1.081058
O     -5.164050   -1.457022   -1.590069
O     -1.065666    0.929676    1.499189
O     -1.286170   -0.725925    0.035828
H      5.121348    0.423830    2.319418
H      6.511032    0.164784    1.146444
H      5.130000   -0.949492    1.088123
H      2.161867   -1.953610    1.613263
H      2.065348   -3.184670    0.243316
H      1.541845   -3.589503    1.895392
H      4.782412    2.054273    0.527266
H      5.261585    0.858326   -0.722760
H     -0.330630   -2.201898    1.872213
H     -0.374207   -3.111376    0.316751
H      2.825109    0.712312    1.031345
H      3.340634   -0.482551   -0.243352
H      3.413548    1.429876   -1.923653
H      2.952615    2.522123   -0.611592
H      1.087744    2.252098   -2.033690
H      0.713805    1.572437   -0.410487
H     -0.366189    0.376122   -2.180260
H      1.136018   -0.042936   -3.017663
H     -6.940585    2.089379    0.951330
H     -5.135280    3.122678    2.296575
H      0.182743   -1.910915   -1.823252
H      1.757982   -1.554296   -1.179741
H     -6.378672    0.205242   -0.497689
H     -2.805567    2.238591    2.154800
H      0.557097   -0.288317    0.794479
H     -5.003524   -2.030300   -2.434221
