48

C      4.743464    2.338801    1.569693
C      0.554963   -3.693214    0.008631
C      5.420838    1.073909    1.083879
C     -0.231165   -2.468807    0.362811
C      4.374972    0.007966    0.851954
C      3.381835    0.464947   -0.182117
C      2.358555   -0.688673   -0.347655
C      1.348460   -0.287007   -1.364330
C     -4.526264    3.043600    1.302441
C     -3.181389    2.777558    1.429240
C      0.287976   -1.208530   -1.756277
C     -5.326083    2.181779    0.594335
C     -2.652285    1.652592    0.846271
C     -0.744491   -1.690145   -0.813029
C     -4.779179    1.017750   -0.009002
C     -3.456756    0.760302    0.118257
C     -5.706631    0.200870   -0.716964
C     -2.791840   -0.387848   -0.449550
O     -6.944942    0.564942   -0.759794
O     -5.481455   -0.966139   -1.392040
O     -3.285666   -1.306500   -1.126399
O     -1.399363   -0.547494   -0.246488
H      4.406726    2.894172    0.684164
H      5.415390    2.929539    2.206898
H      3.874770    2.014820    2.179484
H      0.039563   -4.206619   -0.814861
H      0.518803   -4.396317    0.886403
H      1.602538   -3.472474   -0.180881
H      6.160741    0.729681    1.824912
H      5.923207    1.301240    0.122854
H     -1.177605   -2.926032    0.899678
H      0.159589   -1.841375    1.155952
H      4.901418   -0.892108    0.474641
H      3.883560   -0.229087    1.816815
H      3.880451    0.663414   -1.135130
H      2.888938    1.374657    0.179686
H      1.970394   -0.819097    0.661477
H      2.966257   -1.565775   -0.641408
H      0.937317    0.717101   -1.004356
H      1.886758    0.054715   -2.322341
H     -4.902892    3.936498    1.774552
H     -2.512664    3.425855    1.976463
H      0.788507   -2.135577   -2.246165
H     -0.274105   -0.805118   -2.685917
H     -6.381461    2.414194    0.509501
H     -1.596487    1.470519    0.962431
H     -1.498397   -2.319841   -1.366981
H     -5.824869   -1.157643   -2.334995
