38

C     -5.603869    0.405776   -0.137106
C      4.119916   -0.002211   -2.033576
C      4.038767   -0.698484    2.496140
C     -4.100493    0.213593   -0.382594
C      2.631483    0.205350   -1.968203
C     -3.414147    0.778705    0.820951
C     -1.923921    0.660363    0.677201
C     -1.542808   -0.783200    0.539871
C     -0.060964   -0.944588    0.429637
C      0.536079   -0.257385   -0.747797
C      3.359214   -1.092762    1.219779
C      2.025995   -0.502015   -0.758505
O      3.388373   -2.286795    0.807809
O      2.672327   -0.203145    0.426133
H     -5.957497   -0.456744    0.433978
H     -5.740167    1.334897    0.444583
H     -6.107548    0.439851   -1.123325
H      4.568075    0.223834   -1.053692
H      4.294232   -1.058383   -2.354001
H      4.532932    0.729885   -2.754461
H      3.849102   -1.437586    3.294947
H      3.708725    0.319439    2.752778
H      5.135463   -0.650421    2.307200
H     -3.781626    0.712049   -1.320260
H     -3.928491   -0.898365   -0.449851
H      2.205434   -0.211940   -2.904098
H      2.377958    1.286627   -1.973175
H     -3.694282    1.865766    0.917334
H     -3.789355    0.243901    1.713775
H     -1.454472    1.062385    1.603960
H     -1.549553    1.271423   -0.173440
H     -1.988766   -1.424511    1.313127
H     -1.968080   -1.162007   -0.429434
H      0.405351   -0.578071    1.383549
H      0.194149   -2.037499    0.412608
H      0.139973   -0.737326   -1.683562
H      0.263411    0.787762   -0.791552
H      2.159078   -1.587501   -0.956725
