51

C     -7.005838    1.143128    0.802715
C     -0.349678   -1.528923    1.027378
C     -5.773945    2.025842    0.812627
C     -4.738146    1.530248   -0.173031
C     -4.319941    0.122340    0.186656
C     -3.284102   -0.419123   -0.770295
C     -2.033445    0.394127   -0.800890
C     -1.062392   -0.217362   -1.762283
C      5.088570    2.749359   -0.284357
C      3.763178    2.367816   -0.279719
C      6.462078   -1.782783   -0.330529
C     -0.553717   -1.565742   -1.477288
C      6.093053    1.809968   -0.298190
C      6.774161   -0.452466   -0.321213
C      3.412502    1.010135   -0.289043
C      5.145609   -2.140577   -0.325740
C      0.274382   -1.823931   -0.294107
C      5.733513    0.479329   -0.307234
C      4.416111    0.078853   -0.302801
C      4.075289   -1.255326   -0.311979
C      2.737182   -1.791434   -0.308520
O      2.632375   -3.071147   -0.318644
O      1.534076   -1.169633   -0.296128
H     -6.930888    0.375785    1.608757
H     -7.157223    0.649712   -0.172113
H     -7.915069    1.760095    0.994571
H     -1.434213   -1.696101    1.060664
H      0.047975   -2.329776    1.748518
H     -0.017801   -0.551399    1.456112
H     -6.114963    3.051732    0.576701
H     -5.367021    2.022363    1.860194
H     -3.897161    2.233023   -0.149657
H     -5.230286    1.532869   -1.171919
H     -3.975172    0.095652    1.227479
H     -5.220604   -0.520558    0.112033
H     -3.758194   -0.456122   -1.789707
H     -3.090353   -1.463997   -0.513570
H     -1.667648    0.519244    0.223289
H     -2.291137    1.402905   -1.254923
H     -0.230708    0.520949   -2.008089
H     -1.633398   -0.247792   -2.750692
H      5.382911    3.801909   -0.277265
H      2.975854    3.119982   -0.268745
H      7.278936   -2.510845   -0.341477
H     -0.072201   -2.042702   -2.397732
H     -1.464976   -2.237635   -1.363465
H      7.147241    2.082960   -0.302132
H      7.810815   -0.165244   -0.324944
H      2.382759    0.741408   -0.285209
H      4.961663   -3.226645   -0.333760
H      0.459986   -2.954467   -0.304711
