38

C     -5.891981   -0.865175    0.110073
C      2.758842    0.306506   -2.080966
C      6.123293   -0.503508    1.112576
C     -4.431334   -0.849958    0.514856
C     -3.875337    0.508630    0.175109
C     -2.420560    0.651567    0.531784
C     -1.572600   -0.358299   -0.199853
C     -0.119946   -0.250762    0.125937
C      0.465277    1.099471   -0.220170
C      1.912776    1.205160    0.105396
C      2.791095    0.219506   -0.599497
C      4.740897   -0.689204    0.609838
O      4.127986   -1.766282    0.812032
O      4.108547    0.307287   -0.082264
H     -6.022761   -1.056919   -0.975133
H     -6.437085   -1.677628    0.639927
H     -6.406407    0.080816    0.336380
H      1.811825   -0.170519   -2.469635
H      2.905478    1.311667   -2.492659
H      3.578486   -0.327346   -2.484314
H      6.385519    0.573141    1.204094
H      6.881869   -1.010929    0.473517
H      6.249434   -0.951790    2.133568
H     -4.382893   -1.100317    1.574190
H     -3.923928   -1.593540   -0.150173
H     -4.062271    0.672948   -0.905596
H     -4.473648    1.272323    0.709691
H     -2.301031    0.615018    1.624296
H     -2.098411    1.655087    0.184729
H     -1.793690   -0.278297   -1.275476
H     -1.916217   -1.362143    0.125104
H      0.411626   -1.002555   -0.513949
H      0.022560   -0.478090    1.182039
H      0.217626    1.405470   -1.257094
H     -0.070373    1.839485    0.435359
H      2.246742    2.231829   -0.175138
H      2.030356    1.143786    1.205544
H      2.430238   -0.806435   -0.313079
