48

C      7.820899   -0.067616    0.834374
C     -0.609083    2.115232   -0.433084
C      6.476810    0.239750    0.219687
C      5.565421   -0.918126    0.525853
C      4.169244   -0.726625   -0.044757
C      3.503021    0.484951    0.493386
C      2.113001    0.686229   -0.104844
C      1.196660   -0.451541    0.180149
C     -7.083036   -0.711459   -1.839273
C     -5.943569   -0.435939   -2.522978
C     -0.158627   -0.357042   -0.409481
C     -7.066458   -0.702436   -0.473938
C     -4.811741   -0.157239   -1.813962
C     -1.063000    0.760255   -0.059139
C     -5.897823   -0.414639    0.255227
C     -4.735038   -0.133463   -0.415927
C     -5.995058   -0.429919    1.695041
C     -3.461595    0.177392    0.214508
O     -5.113406   -0.204271    2.532842
O     -7.258823   -0.742654    2.248512
O     -3.192444    0.244963    1.418980
O     -2.344516    0.447616   -0.618729
H      8.248605    0.796090    1.384777
H      7.742690   -0.896785    1.583935
H      8.480029   -0.450067    0.033908
H      0.184200    2.180404   -1.187721
H     -1.514305    2.710450   -0.809415
H     -0.311203    2.688411    0.461700
H      6.130070    1.188615    0.655634
H      6.593182    0.393467   -0.864434
H      5.982941   -1.832816    0.061386
H      5.501025   -1.102752    1.615101
H      3.597505   -1.642186    0.295662
H      4.168570   -0.749849   -1.145490
H      3.395205    0.373053    1.592609
H      4.083068    1.391199    0.217635
H      1.658677    1.582779    0.432718
H      2.208385    0.942661   -1.170162
H      1.726153   -1.389612   -0.199472
H      1.139904   -0.585701    1.297818
H     -8.013358   -0.940391   -2.381728
H     -5.960918   -0.444114   -3.612128
H     -0.687394   -1.329806   -0.122933
H     -0.094185   -0.469075   -1.551979
H     -8.003225   -0.929205    0.017093
H     -3.906018    0.061782   -2.349382
H     -1.152187    0.740490    1.074560
H     -7.308255   -0.990463    3.250041
