38

C     -5.215862    0.205195    0.361859
C      3.431448   -1.234917   -0.563467
C      5.246479    3.066230    0.081597
C     -4.898383   -1.257800    0.546723
C     -3.454617   -1.474145    0.126569
C     -2.561616   -0.628474    0.987426
C     -1.099032   -0.792164    0.639378
C     -0.805160   -0.402574   -0.783201
C      0.629528   -0.556073   -1.173084
C      1.492869    0.314310   -0.301778
C      2.963994    0.174739   -0.705063
C      4.427964    2.131480   -0.705143
O      4.282619    2.188762   -1.947723
O      3.764559    1.109942   -0.039094
H     -6.272341    0.338192    0.002051
H     -4.558035    0.657860   -0.417664
H     -5.076132    0.763425    1.302110
H      4.547565   -1.213257   -0.503208
H      2.980745   -1.762344    0.300808
H      3.143285   -1.799859   -1.473878
H      6.292999    2.679398    0.162870
H      5.317025    4.047391   -0.436500
H      4.866332    3.244784    1.095856
H     -4.970034   -1.507306    1.632954
H     -5.597974   -1.851847   -0.066202
H     -3.388253   -1.183882   -0.939343
H     -3.247335   -2.557845    0.233404
H     -2.660292   -0.847187    2.060340
H     -2.816695    0.452140    0.800714
H     -0.752078   -1.840184    0.841228
H     -0.530222   -0.102495    1.313597
H     -1.174131    0.642399   -0.937821
H     -1.452763   -1.022204   -1.449442
H      0.884940   -1.634833   -1.079629
H      0.745588   -0.203629   -2.220591
H      1.153158    1.361313   -0.425064
H      1.372467    0.068985    0.779816
H      2.987392    0.426475   -1.793698
