48

C      5.249474    2.546792    0.778558
C     -0.529683   -2.070682   -1.215290
C      5.440416    1.280053   -0.003377
C      4.039634    0.577240   -0.050139
C      4.194960   -0.680723   -0.817837
C      3.042143   -1.533710   -1.098333
C      2.290436   -2.170705   -0.010655
C      1.557824   -1.331881    0.962057
C     -5.938225    2.589602   -0.458547
C     -4.765775    2.558769   -1.162447
C      0.476351   -0.441649    0.442745
C     -6.154383    1.686740    0.556999
C     -3.829846    1.604595   -0.818091
C     -0.724155   -1.146752   -0.080120
C     -5.195061    0.709460    0.909239
C     -4.024574    0.677499    0.207664
C     -5.557646   -0.170413    1.994120
C     -2.967591   -0.281545    0.480907
O     -6.714171    0.012115    2.540027
O     -4.862122   -1.196091    2.558896
O     -2.950941   -1.171402    1.337973
O     -1.791819   -0.236876   -0.298711
H      4.189781    2.873566    0.737669
H      5.538620    2.410064    1.854780
H      5.903422    3.366379    0.394405
H     -1.479929   -1.982397   -1.872937
H     -0.580597   -3.162582   -0.923360
H      0.285177   -1.827315   -1.889712
H      5.723442    1.422273   -1.045966
H      6.110600    0.569945    0.526962
H      3.349949    1.286793   -0.550765
H      3.795246    0.370572    0.995766
H      5.027784   -1.258443   -0.278003
H      4.742190   -0.405224   -1.787248
H      2.305778   -0.877224   -1.694923
H      3.353549   -2.334260   -1.854179
H      3.061185   -2.758597    0.643078
H      1.659638   -3.045987   -0.383637
H      0.984604   -2.128822    1.627442
H      2.251631   -0.864446    1.682130
H     -6.681544    3.325442   -0.710617
H     -4.581741    3.269916   -1.970986
H      0.945326    0.179765   -0.380352
H      0.193236    0.334050    1.218657
H     -7.103185    1.758617    1.080879
H     -2.890614    1.551155   -1.353948
H     -1.077258   -1.809228    0.786772
H     -5.311537   -2.074447    2.756961
