41

C     -5.541191   -0.937353    0.915803
C      6.362483   -0.733274    0.308830
C     -0.824860    0.778509    0.894407
C     -4.822785   -0.794725   -0.413939
C      5.819610    0.613464    0.728262
C     -3.633131    0.126551   -0.158947
C     -2.921726    0.271904   -1.461034
C      1.290737   -0.718884   -0.259394
C     -1.746706    1.150259   -1.442346
C      0.016487   -0.500868   -0.973653
C      2.293785    0.335182   -0.566793
C     -0.596947    0.836536   -0.569200
C      3.549712    0.031556    0.173781
O      3.582242   -0.986842    0.893646
O      4.619235    0.899265    0.023506
H     -6.584671   -1.209912    0.731850
H     -5.007537   -1.687963    1.530935
H     -5.462709    0.055443    1.433813
H      6.330837   -1.473706    1.124595
H      5.848367   -1.036397   -0.608058
H      7.457032   -0.601602    0.070685
H     -0.822291   -0.264450    1.306487
H      0.095389    1.227066    1.394626
H     -1.643330    1.410640    1.279740
H     -4.413496   -1.761133   -0.776087
H     -5.457068   -0.316235   -1.166035
H      5.563707    0.636865    1.804709
H      6.538291    1.407603    0.528225
H     -3.055780   -0.369140    0.647509
H     -3.973187    1.096161    0.204890
H     -3.695995    0.698940   -2.174048
H     -2.668468   -0.709371   -1.923446
H      1.076484   -0.779749    0.841693
H      1.725880   -1.697230   -0.587173
H     -2.121975    2.207903   -1.268068
H     -1.335726    1.221706   -2.498470
H     -0.688129   -1.333561   -0.779369
H      0.201683   -0.497562   -2.067895
H      2.024930    1.364750   -0.240704
H      2.467783    0.373340   -1.657660
H      0.153035    1.666314   -0.755528
