48

C     -3.611141   -1.028719   -3.498627
C     -6.221494    0.231941    0.191178
C     -4.112985    0.893319    2.990622
C      4.805343    0.662468   -2.190611
C      5.220387   -0.133642   -1.247152
C      0.159259   -0.186728    0.004065
C     -2.007181   -0.589348   -1.287424
C      2.976933    1.332343   -0.775696
C      4.934550   -1.535999    0.670161
C      4.257851    0.431059    2.263958
C     -1.222686   -0.370936   -0.175532
C      5.112925   -0.339069    1.417817
C      3.618491    1.506825   -2.085973
C      0.454664   -0.002285    1.326704
C     -3.358443   -0.728901   -1.095670
C      3.439070    0.520009    0.133854
C     -1.734514   -0.289818    1.089450
C     -3.929241   -0.656200    0.157393
C     -3.110632   -0.437259    1.237451
C      1.708282    0.171745    1.994916
C      4.563800   -0.295205    0.021167
N     -0.756411   -0.074104    1.973643
N      2.982330    0.331703    1.477815
O      3.197584    2.271653   -2.973678
O      1.663268    0.181850    3.313667
O     -4.161927   -0.950069   -2.212057
O     -5.284075   -0.806450    0.258107
O     -3.680796   -0.363924    2.495271
H     -4.371478   -1.091647   -4.286608
H     -2.936913   -1.906392   -3.531256
H     -2.968205   -0.126188   -3.648764
H     -7.068779   -0.137017   -0.455221
H     -6.672686    0.424229    1.181886
H     -5.836257    1.142767   -0.302099
H     -3.707656    1.722799    2.372866
H     -3.742280    0.992098    4.022780
H     -5.219065    0.911619    3.028677
H      5.376676    0.727044   -3.162761
H      6.161517   -0.701722   -1.501678
H      0.819014   -0.222145   -0.834561
H     -1.559456   -0.646306   -2.269189
H      2.043835    1.918424   -0.566220
H      4.103703   -2.213000    0.961759
H      5.802874   -2.093749    0.295917
H      4.525063    1.522861    2.296961
H      4.060314    0.047678    3.290951
H      6.203129   -0.039186    1.563988
H     -0.916561    0.021579    2.992092
