24

C     -2.420934    0.979824   -1.783558
C      4.113819    0.462821    1.212244
C      0.507618   -0.620036    0.884177
C      0.285519   -0.772927   -0.600858
C     -1.808385    0.290093   -0.583077
C      1.968996   -0.628432    1.166048
C     -2.944912   -0.094021    0.318516
F     -2.475586   -0.730937    1.441288
F     -3.593563    1.052448    0.747692
F     -3.868888   -0.875394   -0.355187
O      2.476208   -1.679444    1.605498
O      2.719566    0.518426    0.932902
O     -1.029888   -0.770301   -0.884039
H     -1.744968    1.771105   -2.188870
H     -2.739215    0.231135   -2.516501
H     -3.324576    1.508309   -1.425477
H      4.470577   -0.594849    1.228718
H      4.627176    1.010140    0.389623
H      4.307311    0.940757    2.187930
H      0.044665   -1.535909    1.347044
H      0.012386    0.255196    1.333199
H      0.897091   -0.028200   -1.140794
H      0.723755   -1.761998   -0.878613
H     -1.203774    1.072194   -0.079121
