21

C     -2.375209    1.160022    0.682202
C      1.953448   -0.288841    0.330593
C      0.708037    0.123233   -0.429185
C     -1.589523    0.182342   -0.162121
C      3.158376   -0.038458   -0.479381
C     -2.395414   -1.111155   -0.222248
F     -3.640692   -0.895167   -0.788817
F     -2.507666   -1.637589    1.063376
F     -1.756249   -2.073849   -0.979967
O      3.051563    0.450756   -1.625145
O      4.413174   -0.336331    0.007079
O     -0.371831   -0.142222    0.394386
H     -2.082556    2.212998    0.435360
H     -2.150639    1.009731    1.763102
H     -3.444323    1.055515    0.458657
H      1.870702   -1.394860    0.511238
H      1.979543    0.173659    1.327883
H      0.805977    1.187253   -0.703507
H      0.693007   -0.508455   -1.355089
H     -1.525230    0.604156   -1.177572
H      5.205504    0.267262   -0.260492
