66

C     -4.830649    0.991524   -2.082885
C     -5.855579    0.582714    0.087990
C     -2.646506    4.316208    1.213409
C     -2.990400    3.308434    2.089269
C     -2.549156    4.001541   -0.120420
C      7.542274   -1.186754    0.261080
C      8.074636    0.006427    0.983553
C     -3.218955    2.055101    1.614744
C     -2.788099    2.708386   -0.585779
C     -0.679256   -0.109602    0.938013
C      0.065990    0.119932   -1.331817
C     -1.876548   -4.054263   -0.991876
C      0.595936    0.091714    1.374524
C      1.353588    0.322818   -0.880967
C     -1.591662   -2.709553   -0.937862
C      6.082572   -1.310931    0.638218
C      7.024842    0.267255    2.043487
C      5.284286    0.936405    0.665725
C      3.948912    0.733594    0.034342
C     -4.169748   -3.504315   -1.187251
C     -0.955395   -0.096676   -0.429013
C     -3.132133    1.698700    0.287831
C     -3.183691   -4.467540   -1.118486
C      1.632386    0.311133    0.471827
C     -2.586027   -1.758440   -1.007495
C     -3.894771   -2.153590   -1.133975
C     -2.312980   -0.304147   -0.950455
C     -3.391595    0.327198   -0.118119
C     -4.719281    0.155176   -0.851490
N      5.763612   -0.155246    1.457263
O     -3.526736   -5.812011   -1.177612
O      2.916759    0.512148    0.951586
O     -4.890399   -1.186846   -1.203716
H     -5.046120    2.072245   -1.883576
H     -5.761391    0.637746   -2.616504
H     -4.024726    0.874596   -2.809115
H     -6.747106    0.723132   -0.550899
H     -5.982919   -0.227463    0.826844
H     -5.565140    1.549620    0.516219
H     -2.466136    5.310312    1.601718
H     -3.084570    3.490522    3.165016
H     -2.280369    4.786334   -0.809179
H      7.676287   -1.109909   -0.858375
H      8.112827   -2.098351    0.554983
H      8.176610    0.905481    0.322051
H      9.065702   -0.173068    1.465096
H     -3.487693    1.279920    2.324301
H     -2.705394    2.480079   -1.625007
H     -1.526149   -0.286819    1.587960
H     -0.092520    0.140000   -2.401877
H     -1.102043   -4.794682   -0.937161
H      0.769358    0.074576    2.436466
H      2.179695    0.496170   -1.568353
H     -0.539752   -2.429840   -0.836851
H      5.502042   -1.329628   -0.294463
H      5.942149   -2.263990    1.167286
H      7.035322    1.357758    2.248156
H      7.200093   -0.275526    2.973578
H      6.025670    1.071769   -0.174130
H      5.331348    1.869056    1.264371
H      4.002030   -0.030888   -0.753604
H      3.698800    1.701598   -0.485322
H     -5.204894   -3.806846   -1.287012
H     -2.346168    0.049593   -2.007667
H     -3.512717   -0.319322    0.801229
H     -3.738351   -6.360667   -0.359821
