39

C     -3.477880    3.378349    0.713551
C     -1.360897   -2.105048   -0.364879
C     -3.467794   -0.936750   -0.460069
C     -3.095444    2.007740    0.140722
C      4.826398   -1.046184    1.357377
C      3.714442   -0.908914    2.125275
C     -1.791510    1.542897    0.652532
C      4.732332   -0.896405   -0.000768
C      2.524366   -0.620583    1.490474
C     -2.186043   -0.960101    0.308267
C      3.515112   -0.601818   -0.646685
C      2.396961   -0.462727    0.114531
C     -1.340988    0.250720    0.097399
C      3.527536   -0.465244   -2.074849
C      1.069048   -0.160975   -0.389400
O      2.571980   -0.210795   -2.813982
O      4.775640   -0.641845   -2.710402
O      0.722421    0.018763   -1.561881
O     -0.000223   -0.046270    0.527138
H     -2.666232    4.092514    0.533528
H     -3.780045    3.253744    1.752815
H     -4.351602    3.718175    0.125012
H     -2.030224   -2.991755   -0.270048
H     -0.437990   -2.279066    0.188028
H     -1.243495   -1.901444   -1.436507
H     -4.387201   -0.919991    0.165820
H     -3.561472   -1.938876   -1.000243
H     -3.483605   -0.212173   -1.295753
H     -3.065124    2.121126   -0.950410
H     -3.919344    1.312077    0.406282
H      5.772243   -1.274342    1.851251
H      3.720627   -1.015611    3.212207
H     -1.021156    2.311657    0.314194
H     -1.703453    1.600373    1.767935
H      5.660573   -1.019774   -0.551427
H      1.640068   -0.511916    2.106342
H     -2.339823   -1.251603    1.346838
H     -1.255109    0.344268   -1.036664
H      4.796909   -0.572194   -3.733552
