46

C     -0.244026    2.849729    1.969412
C     -0.059195    3.029737    0.493260
C     -5.067018   -3.185939   -2.426546
C     -4.828816   -1.959947   -3.012713
C     -4.530929   -3.421753   -1.180147
C      5.818552    0.018092   -0.257581
C      4.879865    0.369457   -1.195225
C     -0.902511    2.080870   -0.328989
C     -4.076658   -0.992889   -2.375793
C     -3.785709   -2.462959   -0.549663
C      5.476821   -0.278728    1.031619
C      3.573753    0.409005   -0.774831
C     -2.722745   -0.212165   -0.406933
C     -1.262825   -0.373281   -0.761499
C     -3.545929   -1.242768   -1.127788
C     -0.489460    0.676929    0.001257
C      4.137903   -0.242610    1.479542
C      3.196237    0.107367    0.548545
C      3.888472   -0.573269    2.858111
C      1.794226    0.188658    0.850585
O      4.888018   -0.877800    3.589460
O      2.681571   -0.597674    3.480266
O      1.192205   -0.020284    1.915953
O      0.897978    0.558604   -0.176419
H     -0.563627    3.839797    2.410553
H     -1.027611    2.109281    2.227249
H      0.740216    2.626286    2.450958
H      1.034568    2.885296    0.244405
H     -0.247539    4.090677    0.204893
H     -5.662675   -3.936598   -2.943946
H     -5.225628   -1.723610   -3.988210
H     -4.696785   -4.369470   -0.691429
H      6.870717   -0.020882   -0.568892
H      5.188529    0.595509   -2.198314
H     -0.671400    2.320502   -1.401377
H     -1.983437    2.287498   -0.135219
H     -3.895882   -0.023232   -2.854253
H     -3.366401   -2.663315    0.438857
H      6.253600   -0.557109    1.760000
H      2.832052    0.688630   -1.523340
H     -3.140455    0.779931   -0.736176
H     -2.914188   -0.334631    0.679066
H     -1.177190   -0.266639   -1.857495
H     -0.945191   -1.351897   -0.385581
H     -0.716217    0.483298    1.066022
H      2.404763   -1.305705    4.158345
