34

C     -2.067420    2.929746    0.839147
C      3.403720   -1.521271    0.795541
C      2.098357   -1.123081    0.875577
C      4.172990   -1.009523   -0.215927
C     -0.668864   -0.393297   -1.028739
C     -2.379364    0.673256    0.332900
C     -0.154552    1.573232    0.398436
C     -2.367588   -1.769933    0.141745
C     -2.116327   -0.467102   -0.620190
C      0.101596    0.103270    0.200583
C      1.504011   -0.236387    0.000703
C      3.566582   -0.123760   -1.084105
N      2.279583    0.252278   -0.983818
N     -1.543129    1.823201    0.059036
O     -2.057211   -2.864181   -0.690272
O      4.382391    0.379431   -2.105699
H     -1.446061    3.825045    0.618871
H     -3.129706    3.079279    0.559514
H     -2.048513    2.655048    1.912339
H      3.801522   -2.222096    1.519788
H      1.494749   -1.544692    1.695142
H      5.202916   -1.312124   -0.294034
H     -0.561348    0.289884   -1.872352
H     -0.242042   -1.405320   -1.251472
H     -2.313738    0.355454    1.376569
H     -3.434756    1.004596    0.155267
H      0.513489    2.217406   -0.177910
H     -0.012066    1.792226    1.484924
H     -1.815820   -1.789095    1.085992
H     -3.445444   -1.849852    0.386146
H     -2.775495   -0.406423   -1.488286
H     -0.296874   -0.427312    1.067829
H     -2.656380   -3.635573   -0.494017
H      5.010791    1.147669   -1.953089
