34

C     -2.305156    2.014922    1.091586
C      3.338747    0.368111    1.416043
C      2.007774    0.409146    1.053454
C      4.287886    0.104315    0.451301
C     -0.505849   -0.833898    0.202236
C     -2.351017    0.450736   -0.735454
C     -0.352042    1.588142   -0.254864
C     -2.507385   -1.987381   -0.599744
C     -1.997578   -0.763952    0.096515
C      0.190728    0.242243   -0.604051
C      1.639213    0.187822   -0.260618
C      3.896099   -0.113429   -0.854163
N      2.590069   -0.065933   -1.172244
N     -1.783090    1.645409   -0.185678
O     -2.164036   -3.139627    0.100345
O      4.884802   -0.378945   -1.810744
H     -3.011180    2.879011    0.923831
H     -1.511388    2.318273    1.827461
H     -2.936858    1.213606    1.549399
H      3.634161    0.543682    2.459779
H      1.261079    0.620109    1.830321
H      5.329398    0.076364    0.756723
H     -0.152581   -0.766633    1.253762
H     -0.128464   -1.808244   -0.186204
H     -3.454015    0.478129   -0.806734
H     -1.956392    0.293183   -1.746992
H      0.045308    1.950742    0.719647
H     -0.030862    2.348063   -1.012613
H     -3.612341   -1.941741   -0.661576
H     -2.109326   -2.087489   -1.623716
H     -2.456941   -0.718499    1.104443
H      0.067122    0.044050   -1.692867
H     -2.668392   -3.893036   -0.318496
H      4.822509   -1.277251   -2.310087
