21

C     -2.504980   -0.807509    0.700179
C      2.030346    0.100943    0.609433
C      0.690102   -0.214399   -0.056827
C     -1.516132    0.004428   -0.091744
C      3.065376   -0.508069   -0.264380
C     -2.136482    1.331378   -0.511489
F     -1.143399    2.010769   -1.241410
F     -2.476243    2.089916    0.591409
F     -3.184708    1.089885   -1.350106
O      2.902970   -1.690637   -0.617447
O      4.183727    0.171999   -0.700198
O     -0.362139    0.297253    0.670245
H     -2.534567   -0.476422    1.762177
H     -2.249150   -1.894070    0.680756
H     -3.538416   -0.666348    0.315929
H      2.081650   -0.434346    1.605239
H      2.183483    1.158995    0.817171
H      0.645871   -1.331379   -0.119518
H      0.690812    0.181184   -1.074860
H     -1.292493   -0.531030   -1.021731
H      4.464373    0.117458   -1.699478
