39

C     -1.056922   -1.760704    1.831470
C     -4.334401   -0.182671   -0.952696
C     -3.695636    2.021556   -0.132867
C     -1.849755   -1.370190    0.588367
C      4.914799   -0.969237   -0.956721
C      3.770251   -1.442179   -1.544395
C      4.852429   -0.109059    0.098768
C      2.581846   -1.015601   -1.028210
C     -1.902292    0.563857   -1.052204
C     -3.328593    0.885721   -1.108962
C     -1.301092   -0.031357    0.152717
C      3.629297    0.339837    0.642172
C      2.473622   -0.130286    0.057808
C      3.653405    1.250971    1.763460
C      1.143918    0.250155    0.514394
O      2.723045    1.755821    2.383533
O      4.933296    1.633354    2.235474
O      0.826321    1.000227    1.430594
O      0.070644   -0.313858   -0.183666
H      0.014418   -1.677830    1.555071
H     -1.269239   -1.066486    2.667454
H     -1.245848   -2.828756    2.102919
H     -5.211106    0.026439   -1.654067
H     -3.993720   -1.181668   -1.299562
H     -4.835583   -0.244709    0.033481
H     -3.880266    1.571649    0.861150
H     -4.676558    2.408944   -0.483900
H     -2.930080    2.800155   -0.117758
H     -2.928485   -1.382696    0.788856
H     -1.641330   -2.147939   -0.173391
H      5.857674   -1.317491   -1.378309
H      3.806068   -2.138973   -2.399486
H      5.778856    0.241113    0.534391
H      1.674468   -1.390355   -1.493875
H     -1.582725   -0.090687   -1.923985
H     -1.326507    1.519584   -1.265612
H     -3.508664    1.376898   -2.118013
H     -1.233245    0.675004    1.018200
H      5.027691    2.471447    2.825935
