36

C      1.324007   -1.935079    1.212075
C      3.187878    1.632126   -2.253612
C      2.588837   -1.236835    0.856807
C      1.810864    1.072134   -2.088674
C     -4.627451    0.319095    1.623231
C     -3.844083    1.270864    2.197516
C      2.603958   -0.550328   -0.467541
C     -4.082721   -0.473269    0.655370
C     -2.546015    1.389229    1.777959
C      1.602171    0.517166   -0.670103
C     -2.750311   -0.367384    0.209724
C     -1.957003    0.590895    0.786684
C     -2.290130   -1.261783   -0.836341
C     -0.568904    0.826910    0.458372
O     -3.131462   -2.105355   -1.270697
O     -1.061096   -1.300558   -1.406241
O     -0.005227    1.788514    1.109055
O      0.276972    0.238213   -0.404165
H      1.600911   -2.849691    1.816128
H      0.784413   -2.344719    0.334260
H      0.671445   -1.350737    1.896771
H      3.127411    2.496387   -2.950459
H      3.914593    0.924311   -2.673250
H      3.528474    2.057044   -1.268861
H      2.849642   -0.550175    1.702859
H      3.421190   -1.994371    0.842949
H      1.092188    1.928922   -2.162261
H      1.522837    0.326646   -2.828633
H     -5.656741    0.214867    1.946411
H     -4.240893    1.925856    2.975445
H      2.621452   -1.327795   -1.258600
H      3.620014   -0.057012   -0.545136
H     -4.706657   -1.249924    0.180504
H     -1.970193    2.182904    2.288551
H      1.897642    1.382958   -0.003551
H     -0.608011   -2.130024   -1.782544
