27

C      3.249823   -0.020594    0.193229
C     -2.182526    1.260872    0.287952
C     -2.291630   -1.194113   -0.212418
C      1.547847   -0.959240   -1.336842
C     -0.275992   -0.158671    0.865505
C      1.885808   -0.147131   -0.354912
C      0.146677   -0.864781   -1.793908
C     -0.653587    0.323592   -1.359696
C     -1.421810    0.019439   -0.091425
C      0.809751    0.686765    0.224852
O     -0.291775   -1.770964   -2.510484
O      1.290983    1.633664    1.127300
O      0.193746    1.320386   -0.875431
H      3.874290   -0.913678    0.006145
H      3.779013    0.883251   -0.218887
H      3.142059    0.192446    1.291934
H     -2.176142    1.381007    1.386073
H     -3.206467    1.294633   -0.124772
H     -1.653638    2.166067   -0.123558
H     -3.178680   -0.898147   -0.824248
H     -2.682065   -1.434675    0.789910
H     -1.716767   -2.012958   -0.653345
H      2.270380   -1.633766   -1.754732
H      0.031618   -1.223093    0.943355
H     -0.561764    0.218520    1.862535
H     -1.308741    0.688671   -2.169714
H      1.379590    1.162496    1.997254
