36

C     -3.134735   -2.780643    0.732303
C     -1.374184    2.785002   -1.462492
C     -2.256445   -1.558409    0.860773
C     -2.148141    1.498551   -1.410303
C      4.745469   -0.017308    1.116475
C      4.002061    0.621083    2.077108
C     -2.575756   -0.613712   -0.278731
C      4.090017   -0.444093    0.006438
C      2.653721    0.817161    1.917496
C     -1.735923    0.637340   -0.221317
C      2.696827   -0.248824   -0.172977
C      1.954092    0.380637    0.770262
C      2.164244   -0.764180   -1.407978
C      0.544033    0.612175    0.655391
O      2.941940   -1.349957   -2.250926
O      0.876273   -0.697255   -1.797867
O      0.023123    1.234899    1.675762
O     -0.362119    0.318712   -0.293439
H     -4.099154   -2.685919    1.249219
H     -2.593923   -3.665622    1.152377
H     -3.366167   -2.999050   -0.344090
H     -0.560463    2.694669   -2.214229
H     -2.012480    3.638445   -1.834734
H     -0.995829    3.113386   -0.470479
H     -2.576682   -1.030476    1.795324
H     -1.191751   -1.776199    0.938620
H     -3.224078    1.759435   -1.357621
H     -2.015243    0.884650   -2.325805
H      5.828188   -0.166443    1.261045
H      4.504599    0.968156    2.967450
H     -3.638782   -0.308673   -0.274997
H     -2.388270   -1.113887   -1.255160
H      4.675268   -0.945720   -0.747945
H      2.067483    1.319838    2.673541
H     -1.920458    1.158845    0.735482
H      0.403247   -1.276614   -2.463975
