27

C      3.154307   -0.187131   -0.748540
C     -2.158740   -1.075503   -0.242003
C     -2.317294    1.302688    0.481741
C      1.475605   -1.358201    0.482282
C     -0.386662    0.510842   -0.904762
C      1.833374   -0.234520   -0.128087
C      0.230340   -1.360055    1.275172
C     -0.502534   -0.078004    1.363149
C     -1.400427    0.155394    0.166749
C      0.848381    0.871163   -0.119739
O     -0.174560   -2.410474    1.842793
O      1.362381    2.080710   -0.491398
O      0.407869    0.989800    1.219320
H      3.279631   -1.032029   -1.461085
H      3.963419   -0.306874    0.029115
H      3.385426    0.734766   -1.284211
H     -2.076266   -1.278875   -1.338152
H     -1.868225   -1.985829    0.288871
H     -3.260146   -0.896049   -0.076322
H     -3.350998    0.908907    0.539947
H     -2.307181    2.072243   -0.317229
H     -2.070896    1.770684    1.462704
H      2.041353   -2.263710    0.430788
H     -0.196148   -0.392232   -1.509475
H     -0.741747    1.315310   -1.565718
H     -1.018750    0.063263    2.317397
H      1.848491    2.083720   -1.343984
