32

C     -2.261770    2.052703    0.064608
C     -1.793441   -2.516681    0.268391
C     -2.111880    0.741194    0.758850
C      2.949310   -0.034468    0.118000
C      2.326582   -0.631233   -1.114231
C      2.160205    1.102094    0.676291
C      0.854456   -0.876433   -0.978371
C      0.792715    0.519645    1.059410
C     -1.284477   -0.265636   -0.003521
C      0.114350    0.206462   -0.263800
O      0.132199    1.351015   -1.081658
O     -1.210316   -1.396228    0.797936
H     -1.392776    2.723578    0.263982
H     -2.503910    1.982556   -1.002998
H     -3.141450    2.575939    0.540404
H     -1.405960   -2.873784   -0.680089
H     -2.903419   -2.407125    0.170763
H     -1.666701   -3.328452    1.034960
H     -1.712175    0.883017    1.757754
H     -3.146636    0.291684    0.815573
H      3.995458    0.226099   -0.116134
H      3.002481   -0.841846    0.899380
H      2.596863    0.012951   -1.975074
H      2.821587   -1.609838   -1.283979
H      2.668734    1.563261    1.518628
H      1.954451    1.832231   -0.155020
H      0.700956   -1.843270   -0.456835
H      0.426411   -0.979762   -1.991768
H      0.264679    1.302863    1.612166
H      0.950438   -0.418635    1.586283
H     -1.785747   -0.540171   -0.952424
H     -0.391214    1.196268   -1.887477
