34

C      2.917977   -1.825789   -2.587094
C      2.287949    3.421936    1.149638
C      2.310617   -1.204245   -1.371582
C     -3.196028   -1.079013    0.869904
C     -2.406242   -0.155227    1.698869
C     -2.715672   -1.298096   -0.518263
C      1.303114   -0.341344   -1.441953
C     -1.424891    0.716719    0.993097
C     -1.200085   -1.274610   -0.510743
C      1.841128    2.023243    0.995727
C     -0.800775    0.140708   -0.217837
C      0.725379    0.257385   -0.192711
O      2.118921    1.187639    1.885773
O      1.123670    1.604323   -0.102497
H      2.663273   -2.885762   -2.696798
H      4.022694   -1.767638   -2.449342
H      2.612893   -1.206095   -3.464340
H      3.356239    3.504346    1.441517
H      1.637391    3.876012    1.948724
H      2.110744    3.976917    0.207837
H      2.669179   -1.432220   -0.364670
H     -4.279743   -0.764482    0.802760
H     -3.250399   -2.091815    1.369025
H     -3.116980    0.517965    2.254336
H     -1.877472   -0.722978    2.520493
H     -3.085145   -2.280842   -0.901236
H     -3.060481   -0.455147   -1.173171
H      0.903109   -0.074097   -2.405061
H     -0.615501    0.969403    1.711329
H     -1.915288    1.709498    0.764846
H     -0.783856   -1.520746   -1.530712
H     -0.834514   -1.997334    0.242379
H     -1.114281    0.750545   -1.111946
H      1.073074   -0.279162    0.687195
