46

C     -1.892478    3.379640    0.753484
C     -1.901114    2.815067   -0.636895
C     -3.306196   -2.249728    0.469399
C     -3.215877   -1.819299   -0.966875
C     -3.412101   -1.134023    1.449887
C      5.139469   -1.832719   -1.379698
C      3.959289   -1.774281   -2.084395
C     -0.734697    1.936717   -0.963386
C     -2.016333   -0.936996   -1.241658
C     -2.633136    0.098268    0.987685
C      5.267118   -1.265659   -0.149733
C      2.920131   -1.127820   -1.507633
C     -1.567584   -0.274573    0.012013
C      4.164960   -0.593445    0.434947
C      2.992991   -0.521380   -0.236607
C     -0.522025    0.760948   -0.105634
C      4.376266   -0.017591    1.740855
C      1.803617    0.136528    0.258555
O      5.550824   -0.151464    2.289732
O      3.511299    0.672863    2.527589
O      1.682408    0.713733    1.335719
O      0.671448    0.129633   -0.544377
H     -2.884165    3.150285    1.217130
H     -1.093507    2.990027    1.383179
H     -1.762397    4.494366    0.746384
H     -2.827041    2.343879   -0.957151
H     -1.761988    3.722665   -1.355264
H     -2.422288   -2.868949    0.734086
H     -4.184750   -2.911421    0.560297
H     -4.136023   -1.255618   -1.233804
H     -3.219218   -2.740738   -1.585502
H     -4.450552   -0.808029    1.613989
H     -3.041876   -1.505648    2.430939
H      6.007064   -2.347121   -1.810237
H      3.905342   -2.239656   -3.058396
H     -0.804665    1.707818   -2.053597
H      0.172215    2.622313   -0.912413
H     -2.257358   -0.178139   -2.021279
H     -1.210156   -1.604302   -1.601667
H     -2.125248    0.483009    1.897938
H     -3.317110    0.865886    0.641545
H      6.195855   -1.314266    0.399581
H      1.974216   -1.066483   -2.043223
H     -1.047798   -1.178470    0.576363
H     -0.275030    1.188854    0.927848
H      3.728202    1.505321    3.060282
