29

C      1.952133   -1.697037   -0.003055
C      2.876819    1.540387    0.095393
C     -2.650860    0.601297   -0.627896
C     -2.273352   -0.876167   -0.652353
C     -1.962511    1.186845    0.586655
C     -0.797600   -1.078121   -0.738441
C     -0.471145    1.213163    0.229236
C      1.457468   -0.255971   -0.187760
C     -0.015186   -0.220508    0.216522
O     -0.160038   -0.726757    1.505234
O      2.159201    0.518700    0.708785
H      3.054221   -1.697950   -0.138022
H      1.769203   -1.950534    1.058518
H      1.432808   -2.396907   -0.655345
H      3.408305    2.111549    0.877820
H      2.200835    2.185293   -0.496466
H      3.655625    1.077833   -0.543578
H     -3.747250    0.677744   -0.572451
H     -2.244075    1.089485   -1.541282
H     -2.762740   -1.332226   -1.527774
H     -2.640970   -1.337422    0.284751
H     -2.331272    2.175688    0.867136
H     -2.040706    0.478172    1.443047
H     -0.432505   -0.956049   -1.788004
H     -0.586409   -2.142682   -0.475257
H      0.121849    1.761355    0.964490
H     -0.357114    1.661551   -0.784138
H      1.602686    0.085804   -1.212231
H     -0.217420   -1.696536    1.530074
