31

C      3.204177    0.754558   -0.425224
C      1.746487   -1.622631    0.324978
C      1.718539    0.779486   -0.139198
C     -2.848780    0.767345    0.382171
C     -1.653108    1.519174   -0.212764
C     -2.268388   -0.303170    1.273287
C     -0.994697    0.530815   -1.160542
C     -0.793556   -0.475417    1.127535
C      1.087233   -0.544135   -0.503649
C     -0.386667   -0.566480   -0.309842
O     -0.850077   -1.810441   -0.785306
H      3.707713    1.518913    0.221398
H      3.607755   -0.247853   -0.191317
H      3.353186    1.024466   -1.485366
H      0.988356   -2.395183    0.538272
H      2.586115   -2.099252   -0.231026
H      2.137040   -1.172632    1.244038
H      1.593998    0.934676    0.960909
H      1.299201    1.623154   -0.722626
H     -3.365272    0.230199   -0.455913
H     -3.551105    1.435512    0.885769
H     -0.920078    1.795282    0.560353
H     -2.011141    2.414207   -0.778434
H     -2.524570    0.002064    2.326575
H     -2.804597   -1.275449    1.125907
H     -1.843594    0.097650   -1.766666
H     -0.287655    1.002460   -1.843098
H     -0.210560    0.268672    1.712026
H     -0.534720   -1.469010    1.596508
H      1.324495   -0.753018   -1.567327
H     -0.505730   -1.963962   -1.701427
