31

C     -2.513968    1.704697    0.622802
C     -1.581935   -1.859502   -0.469180
C     -2.455132    0.219714    0.446789
C      2.847227    0.431636   -0.123176
C      2.327621   -0.945260   -0.459381
C      1.917034    1.156632    0.812494
C      0.915497   -0.896345   -0.955861
C      0.560356    1.237656    0.079165
C     -1.385933   -0.311980   -0.445180
C      0.016943   -0.144825    0.053700
O      0.175336   -0.760835    1.284364
H     -2.082907    2.076276    1.580171
H     -2.159816    2.264862   -0.249228
H     -3.625337    1.952793    0.757981
H     -0.885162   -2.344361    0.235726
H     -1.417896   -2.258357   -1.478147
H     -2.601932   -2.105437   -0.110550
H     -2.428343   -0.278796    1.455054
H     -3.451653   -0.099361    0.005184
H      3.817071    0.315537    0.397829
H      2.956555    1.052351   -1.033113
H      2.505579   -1.650105    0.351638
H      2.969610   -1.299899   -1.315061
H      1.743878    0.617502    1.758812
H      2.276384    2.186888    0.950445
H      0.548534   -1.910974   -1.148289
H      0.924477   -0.358358   -1.930640
H      0.842340    1.524163   -0.963945
H     -0.001881    2.009126    0.578574
H     -1.449091    0.068107   -1.473895
H      0.696544   -1.593546    1.264421
