47

C      1.667897    4.059742   -1.930867
C      3.478076   -1.898940    1.450768
C      1.170097    3.836537   -0.666078
C      1.794680    2.995551   -2.793126
C      2.899063   -0.718386    2.146990
C      3.707025   -1.773938   -0.003744
C     -5.365689   -0.454735    1.741092
C     -4.233782    0.189839    2.152440
C      0.807432    2.549445   -0.286421
C      1.431577    1.726222   -2.403703
C      1.962870    0.115232    1.357257
C      2.885486   -0.720165   -0.689813
C     -5.346513   -1.158981    0.572274
C     -3.118245    0.114638    1.389804
C      0.923590    1.467211   -1.128081
C      1.597507   -0.587286    0.095889
C     -4.198429   -1.245001   -0.226793
C     -3.071105   -0.604301    0.180819
C      0.534906    0.109715   -0.710635
C     -4.325314   -2.027194   -1.440314
C     -1.833628   -0.618962   -0.552005
O     -5.469913   -2.575920   -1.686484
O     -3.359366   -2.251390   -2.362760
O     -1.603279   -1.186896   -1.617535
O     -0.707800    0.085239   -0.039168
H      1.948664    5.054761   -2.225467
H      4.448187   -2.140811    1.942101
H      2.833191   -2.806463    1.647952
H      1.073586    4.680665    0.006708
H      2.184702    3.185305   -3.776914
H      2.326209   -1.108017    3.041368
H      3.695722   -0.080055    2.586172
H      3.451113   -2.747236   -0.519532
H      4.774785   -1.589102   -0.276004
H     -6.281953   -0.407084    2.344287
H     -4.239640    0.753937    3.083208
H      0.414649    2.402086    0.725405
H      1.516720    0.866196   -3.052801
H      2.479629    1.067637    1.073912
H      1.082747    0.429176    1.957808
H      3.435406    0.261095   -0.666111
H      2.640443   -0.962084   -1.732308
H     -6.249455   -1.649606    0.282859
H     -2.204592    0.622932    1.702109
H      1.232110   -1.599747    0.360094
H      0.416972   -0.499493   -1.644614
H     -3.206336   -3.161369   -2.793677
