44

C     -2.260913    3.197584    2.902767
C     -2.716952   -1.819832   -2.396943
C      5.227567   -1.834811    0.928819
C     -0.891427    3.098932    2.805588
C     -3.039211    2.595803    1.949679
C     -1.217139   -1.819889   -2.587294
C     -3.151697   -1.517006   -0.995696
C      5.438050   -0.840161    0.015525
C      3.974915   -2.086085    1.429384
C     -0.329300    2.398994    1.755183
C     -2.444128    1.890679    0.892385
C     -0.594844   -0.502707   -2.194772
C     -1.957658   -0.969802   -0.242090
C      4.360231   -0.082524   -0.401602
C      2.904648   -1.305585    0.990657
C     -1.085414    1.785624    0.785461
C     -1.407588    0.164768   -1.074538
C      3.084803   -0.295934    0.071125
C     -0.461822    1.063105   -0.314102
C      1.947040    0.511450   -0.375869
O      2.076093    1.440270   -1.213725
O      0.662835    0.293941    0.102571
H     -2.738387    3.748783    3.728787
H     -3.221815   -1.197666   -3.143242
H     -3.047263   -2.878482   -2.610706
H      6.042965   -2.454644    1.285006
H     -0.305546    3.587624    3.577552
H     -4.113788    2.665102    2.013494
H     -0.748793   -2.681022   -2.068056
H     -1.025455   -1.971907   -3.667759
H     -3.619937   -2.365501   -0.480089
H     -3.886454   -0.666098   -1.055425
H      6.442681   -0.668263   -0.360131
H      3.836135   -2.868940    2.142161
H      0.752291    2.323755    1.682527
H     -3.059275    1.424284    0.142603
H     -0.566378    0.140784   -3.092430
H      0.441356   -0.706942   -1.891284
H     -2.223732   -0.696142    0.775830
H     -1.218905   -1.823672   -0.222335
H      4.500647    0.715230   -1.127727
H      1.914814   -1.509759    1.391083
H     -2.203936    0.719348   -1.552528
H     -0.069317    1.797314   -1.046149
