49

C      0.251893    4.029256   -2.316565
C     -0.577344    2.830922   -1.890904
C     -0.640638    2.710873   -0.405891
C     -3.363841   -2.806550    1.052924
C     -3.974289   -2.067971   -0.119150
C     -2.979487   -1.748423    2.066815
C      5.518143   -1.069880   -0.090626
C      5.014233   -1.131851   -1.353713
C     -3.102493   -0.879267   -0.492522
C     -1.676041   -1.132436    1.551957
C      4.713980   -0.770640    0.958836
C      3.656655   -0.878492   -1.520949
C     -1.455733    1.525398    0.043699
C     -1.731039   -0.982527    0.056251
C      3.341224   -0.510879    0.817471
C      2.826302   -0.569896   -0.440587
C     -0.912747    0.208992   -0.395074
C      2.579814   -0.204344    2.009110
C      1.431002   -0.322045   -0.725312
O      1.371825    0.046681    2.102919
O      3.283386   -0.182320    3.237393
O      1.084953   -0.415440   -1.977537
O      0.413164   -0.005654    0.100894
H     -0.195060    4.956735   -1.944306
H      0.297358    4.006929   -3.417314
H      1.263581    3.928175   -1.866665
H     -0.184038    1.912147   -2.345814
H     -1.622700    2.970211   -2.299541
H      0.400420    2.600674    0.014287
H     -1.049481    3.648070    0.047813
H     -4.116164   -3.508764    1.441099
H     -2.451005   -3.360355    0.733099
H     -4.132867   -2.749275   -0.988595
H     -4.945902   -1.661183    0.222857
H     -2.880341   -2.135880    3.084714
H     -3.724317   -0.919336    2.058142
H      6.585513   -1.263598    0.082757
H      5.644671   -1.367190   -2.182126
H     -3.596271    0.063348   -0.166584
H     -3.042056   -0.872786   -1.599772
H     -0.881707   -1.862750    1.817909
H     -1.445149   -0.204920    2.101153
H      5.115991   -0.719979    1.976056
H      3.259706   -0.929217   -2.530500
H     -1.587575    1.571238    1.145072
H     -2.504705    1.667203   -0.356207
H     -1.213936   -1.870663   -0.420980
H     -0.921305    0.138509   -1.517429
H      2.854417    0.289149    4.047912
