65

C      8.431992    1.949826   -1.267294
C     -8.050640    1.814744   -0.244426
C     -3.525674   -3.586128    0.407612
C      6.954602    1.598094   -0.899207
C     -6.639374    1.743727   -0.810362
C     -3.491004   -2.422686    1.350985
C      6.943207    0.147384   -0.651173
C     -6.519766    0.530224   -1.729470
C      5.696323   -0.549450   -0.335162
C     -5.147897    0.417594   -2.311886
C      4.890302   -0.281723    0.873196
C      4.300174    1.069673    1.080765
C      3.392312    1.238570    2.218283
C      2.065324    0.742703    2.385595
C      1.533731   -0.597981    2.271532
C     -4.050746    0.273343   -1.298255
C      1.421405   -1.291249    0.978769
C     -4.244049   -0.959930   -0.455267
C      0.507768   -0.574126   -0.014341
C     -3.164454   -1.141950    0.570935
C     -0.862444   -0.458320    0.482478
O     -1.150138    0.422217    1.323599
O     -1.880817   -1.297930    0.056928
H      8.569316    3.001274   -1.000778
H      9.116709    1.327202   -0.664908
H      8.591361    1.754091   -2.349836
H     -8.303037    2.839780    0.093904
H     -8.798512    1.545674   -1.045995
H     -8.122984    1.085602    0.598728
H     -2.983205   -3.336711   -0.506163
H     -4.577631   -3.852481    0.112159
H     -3.072766   -4.501174    0.840055
H      6.345671    1.894675   -1.762005
H      6.732525    2.212791   -0.035450
H     -5.928297    1.651623    0.021708
H     -6.467799    2.673810   -1.388413
H     -4.455466   -2.268664    1.839415
H     -2.679396   -2.539841    2.099370
H      7.706692   -0.122955    0.162250
H      7.400260   -0.373539   -1.569183
H     -6.793933   -0.382666   -1.179056
H     -7.217982    0.709363   -2.574437
H      4.976403   -0.509519   -1.246772
H      5.896279   -1.691978   -0.317026
H     -4.948950    1.308294   -2.962862
H     -5.146987   -0.452819   -3.003231
H      5.667172   -0.363716    1.761220
H      4.234037   -1.143795    1.062348
H      3.926617    1.448286    0.108397
H      5.190566    1.752592    1.296430
H      3.341026    2.383468    2.437815
H      4.039199    0.942031    3.145701
H      1.330546    1.457738    1.799902
H      1.736782    1.102980    3.456488
H      2.091835   -1.314856    2.963575
H      0.485262   -0.659149    2.737789
H     -4.012486    1.200129   -0.688365
H     -3.075452    0.209104   -1.817865
H      0.838927   -2.257556    1.202228
H      2.268029   -1.614687    0.422256
H     -5.246045   -0.931983    0.015763
H     -4.262221   -1.830382   -1.148116
H      0.942263    0.394458   -0.337083
H      0.498928   -1.220802   -0.926578
H     -3.243396   -0.312322    1.312202
