47

C     -3.186046   -0.833225    2.120647
C     -0.881354   -1.044037    2.806064
C     -3.232678    1.549616   -2.701861
C     -1.767660    1.207294   -2.892691
C     -3.888072    0.287612   -2.195405
C     -1.247693    0.332587   -1.791223
C     -3.493624    0.181953   -0.706772
C      2.898812    0.791660    0.426250
C      3.371036   -1.432184   -0.215453
C      5.129644    0.131012    0.039605
C     -1.833144   -0.195679    1.944061
C     -2.073397    0.514201   -0.498160
C      2.460272   -0.478512    0.126139
C      4.242508    1.129792    0.391101
C      4.741257   -1.154994   -0.269456
C     -1.311519   -0.194848    0.556184
C      1.026953   -0.777435    0.180251
N      4.688735    2.436963    0.700407
N      5.664022   -2.168431   -0.628193
O      0.662147   -1.945581   -0.099500
O      6.023121    2.718494    0.650912
O      3.898389    3.339309    1.016911
O      7.000084   -1.891593   -0.679159
O      5.269687   -3.299804   -0.895033
O      0.078444    0.142467    0.516481
H     -4.013428   -0.145251    1.865421
H     -3.375046   -1.095706    3.196273
H     -3.248103   -1.824385    1.606420
H      0.148248   -0.709654    2.728119
H     -1.024881   -2.123283    2.550472
H     -1.209253   -0.912110    3.864175
H     -3.643808    1.910262   -3.650137
H     -3.285000    2.308539   -1.892966
H     -1.156232    2.120759   -3.029070
H     -1.697219    0.631994   -3.838714
H     -3.545935   -0.612445   -2.744245
H     -4.984387    0.407435   -2.241795
H     -0.226614    0.673956   -1.534344
H     -1.223946   -0.735213   -1.995826
H     -3.850365   -0.797601   -0.407633
H     -4.187925    0.936165   -0.225359
H      2.201777    1.565464    0.699492
H      3.047437   -2.424979   -0.451825
H      6.194415    0.339182   -0.004295
H     -1.812536    0.805221    2.430592
H     -2.017066    1.632628   -0.325996
H     -1.330060   -1.297616    0.261344
