43

C     -2.454954    2.432180   -1.139744
C     -1.208532    2.197546   -0.336213
C     -3.045572   -2.130678    1.428293
C     -2.921646   -0.938883    2.348951
C     -3.565816   -1.778316    0.078949
C      5.397108   -0.046332    1.448010
C      4.272003    0.386230    2.101244
C     -2.103738    0.164588    1.750990
C     -2.937647   -0.481052   -0.462544
C      5.309250   -0.410916    0.132880
C      3.103341    0.437833    1.415768
C     -1.714744   -0.182351    0.352978
C      4.083540   -0.354081   -0.576967
C      2.959412    0.077886    0.074981
C     -0.742149    0.776427   -0.263723
C      4.147600   -0.765827   -1.947185
C      1.653286    0.175305   -0.557017
O      5.259217   -1.144240   -2.422849
O      3.108232   -0.793492   -2.816469
O      1.307268   -0.083335   -1.703735
O      0.558072    0.636630    0.219607
H     -3.333545    2.605721   -0.481924
H     -2.374066    3.402820   -1.733548
H     -2.637671    1.679211   -1.928931
H     -0.426963    2.875412   -0.761698
H     -1.412478    2.588860    0.692239
H     -2.119459   -2.721183    1.440243
H     -3.823097   -2.795651    1.909167
H     -2.416429   -1.287958    3.272695
H     -3.946710   -0.613108    2.640212
H     -3.278697   -2.584127   -0.622220
H     -4.675106   -1.717231    0.077151
H      6.329932   -0.081767    2.013838
H      4.337812    0.682741    3.167509
H     -1.172294    0.369199    2.321862
H     -2.764559    1.071431    1.711846
H     -2.693455   -0.632455   -1.545138
H     -3.715568    0.285362   -0.290507
H      6.222315   -0.744215   -0.334478
H      2.194402    0.779006    1.914314
H     -1.194625   -1.202137    0.449363
H     -0.691887    0.449725   -1.353201
H      3.128616   -0.584778   -3.794042
