43

C      0.275268   -3.227417    0.917831
C      1.403652   -2.517424    0.194790
C      3.715420    2.182490   -0.055866
C      4.348966    0.846093   -0.190338
C      2.237139    2.125064    0.272126
C     -4.982154    0.290968   -1.654542
C     -3.886055   -0.250396   -2.265010
C      3.439921   -0.312720    0.098446
C      1.610435    1.171393   -0.734319
C     -4.875097    0.671679   -0.344026
C     -2.691962   -0.417877   -1.595878
C      2.108539   -0.228421   -0.547760
C     -3.662314    0.506799    0.352217
C     -2.572425   -0.031969   -0.256645
C      1.046730   -1.048170    0.156082
C     -3.670319    0.937168    1.712160
C     -1.293839   -0.236766    0.370492
O     -2.730357    0.882181    2.494177
O     -4.849800    1.485912    2.255681
O     -0.944530    0.024362    1.530800
O     -0.232098   -0.815897   -0.384536
H      0.489578   -4.301627    1.090184
H     -0.682142   -3.107573    0.341103
H      0.057244   -2.761059    1.912827
H      1.474528   -2.974744   -0.806417
H      2.311480   -2.636220    0.809393
H      3.820019    2.817532   -0.972446
H      4.204965    2.743723    0.765517
H      5.287576    0.813157    0.384241
H      4.662493    0.733672   -1.270430
H      2.062512    1.809220    1.309961
H      1.820230    3.130296    0.064922
H     -5.897928    0.394959   -2.245333
H     -3.958316   -0.554711   -3.298376
H      3.337401   -0.401652    1.191576
H      3.963522   -1.240143   -0.240459
H      0.508631    1.177860   -0.642975
H      1.936957    1.532053   -1.730684
H     -5.757544    1.101378    0.127721
H     -1.829911   -0.843953   -2.077083
H      2.199885   -0.685986   -1.570452
H      1.036436   -0.704865    1.209511
H     -4.842737    1.921630    3.187580
