65

C      4.724465    1.325396   -2.604790
C     -6.118678    1.000652    0.910455
C      0.068195    1.039909   -1.579530
C      5.180764    1.529080   -1.174170
C     -6.637492    0.296983   -0.333629
C     -1.103461    1.298382   -0.653558
C      3.942193    1.833797   -0.358811
C     -5.473056   -0.218408   -1.169828
C      4.343093    2.048392    1.074008
C     -4.604524    0.951667   -1.580136
C      5.008087    0.830281    1.633928
C      4.103690   -0.357511    1.576260
C      2.863177   -0.088482    2.383722
C      1.932618   -1.270645    2.367993
C      1.461804   -1.648471    1.000905
C     -3.438500    0.495032   -2.409525
C      0.529602   -2.828885    1.073264
C     -2.539167   -0.476975   -1.693621
C     -0.693206   -2.622303    1.888432
C     -1.940019    0.084073   -0.432906
C     -1.537922   -1.537379    1.376109
O     -2.553534   -1.098322    1.982461
O     -1.236434   -0.953075    0.183570
H      4.291201    2.261702   -2.968431
H      3.977164    0.516035   -2.613958
H      5.605975    1.103733   -3.248724
H     -6.930037    1.059166    1.663311
H     -5.788223    2.029594    0.698981
H     -5.315580    0.378289    1.386810
H      0.975609    1.592553   -1.279186
H      0.232615   -0.050037   -1.705572
H     -0.230101    1.414252   -2.594325
H      5.926645    2.342865   -1.109143
H      5.655155    0.577000   -0.866010
H     -7.242734   -0.552042    0.019413
H     -7.207426    1.030096   -0.941641
H     -1.645259    2.170844   -1.010561
H     -0.647211    1.588711    0.330350
H      3.557996    2.812569   -0.741844
H      3.185315    1.039768   -0.437694
H     -5.944296   -0.648024   -2.092953
H     -4.929578   -0.980572   -0.614527
H      3.466609    2.391133    1.643900
H      5.132514    2.856146    1.069329
H     -4.295234    1.464147   -0.648555
H     -5.191723    1.655582   -2.200304
H      5.207466    1.024566    2.722438
H      5.960139    0.594160    1.138491
H      4.599703   -1.256368    2.010334
H      3.819554   -0.626106    0.528668
H      3.207114    0.068022    3.440611
H      2.311100    0.823633    2.050786
H      2.485724   -2.131679    2.800191
H      1.044840   -0.993172    2.974335
H      1.042377   -0.799418    0.433298
H      2.353670   -1.997701    0.394796
H     -3.882419   -0.087490   -3.271657
H     -2.897014    1.330100   -2.889195
H      1.106363   -3.733345    1.351949
H      0.199171   -3.021882    0.009810
H     -1.753833   -0.782436   -2.421867
H     -3.119654   -1.377661   -1.458793
H     -0.504523   -2.528218    2.975607
H     -1.302597   -3.568691    1.789872
H     -2.798275    0.369008    0.221057
