47

C      6.136548    1.010432   -0.939857
C     -7.168766    1.071716   -0.331454
C      1.629134   -1.539437   -1.439513
C      5.513308   -0.305098   -0.559864
C     -5.888522    0.540858    0.338142
C      1.044751   -1.930284   -0.139185
C      4.435077   -0.078480    0.472984
C     -5.190344   -0.293796   -0.704018
C      3.372150    0.841862   -0.092621
C     -3.937982   -0.865528   -0.137180
C      2.276840    1.095846    0.871598
C      1.487842    0.048775    1.467018
C     -3.006658    0.248120    0.281913
C      0.623229   -0.918566    0.831175
C     -1.780501   -0.454909    0.817480
O     -1.962444   -1.251366    1.760938
O     -0.543393   -0.224600    0.288910
H      5.628236    1.479131   -1.808924
H      7.177281    0.804306   -1.252328
H      6.177090    1.660470   -0.051527
H     -7.533860    0.272550   -0.996293
H     -7.898724    1.277059    0.470334
H     -6.869230    1.983512   -0.883718
H      1.258530   -0.567198   -1.827160
H      1.333186   -2.265217   -2.268106
H      2.749695   -1.627331   -1.460006
H      5.120160   -0.807660   -1.469296
H      6.298063   -0.913139   -0.064737
H     -5.243296    1.409872    0.607833
H     -6.116112   -0.092305    1.206398
H      1.650240   -2.720567    0.384684
H      0.099290   -2.518881   -0.401548
H      4.011027   -1.076996    0.718458
H      4.885526    0.430439    1.326810
H     -4.892081    0.333234   -1.580684
H     -5.845988   -1.116489   -1.065598
H      3.122704    0.693657   -1.142925
H      3.984009    1.846770   -0.172983
H     -3.415144   -1.552046   -0.857913
H     -4.135873   -1.502406    0.770633
H      1.603543    1.945465    0.504967
H      2.796060    1.653039    1.739792
H      2.163748   -0.515146    2.238289
H      0.805725    0.577302    2.250484
H     -2.682924    0.895830   -0.529293
H     -3.425705    0.832992    1.137512
H      0.154559   -1.527594    1.690381
