45

C      5.750962   -1.617318   -0.768212
C      0.150654    3.042179    0.264501
C      5.906217   -0.288248   -0.064054
C     -0.009156    1.970012    1.313944
C      4.641374   -0.009269    0.731866
C      3.471855    0.032345   -0.258235
C      2.228152    0.313300    0.575848
C     -5.977944   -0.281663   -2.010432
C     -4.954011    0.619293   -2.241383
C      0.995888    0.382992   -0.261732
C     -5.832520   -1.229524   -1.035568
C     -3.810391    0.544014   -1.486230
C     -0.200697    0.637569    0.591235
C     -4.651596   -1.294328   -0.267965
C     -3.628426   -0.421293   -0.473079
C     -4.593395   -2.339132    0.738379
C     -2.364101   -0.378272    0.247571
O     -3.677782   -2.599731    1.517174
O     -5.709489   -3.197374    0.883181
O     -2.054163   -1.152855    1.165381
O     -1.407197    0.597171   -0.097117
H      5.134135   -2.294524   -0.144386
H      6.752800   -2.063457   -1.003273
H      5.174030   -1.427295   -1.701222
H      1.226641    3.330173    0.114112
H     -0.205055    2.714393   -0.732827
H     -0.362042    3.981871    0.565294
H      6.777317   -0.282460    0.632942
H      6.062451    0.473625   -0.843664
H     -0.890060    2.172060    1.972438
H      0.854156    1.946688    1.991833
H      4.496999   -0.800025    1.494302
H      4.725439    0.952834    1.274843
H      3.414165   -0.911827   -0.807565
H      3.686496    0.840056   -0.979070
H      2.469823    1.279854    1.095529
H      2.135052   -0.477320    1.316005
H     -6.863122   -0.191245   -2.624984
H     -5.084770    1.368840   -3.021799
H      1.064117    1.149283   -1.071370
H      0.835288   -0.584751   -0.785935
H     -6.651369   -1.914319   -0.884304
H     -3.014865    1.245956   -1.667514
H     -0.203628   -0.184953    1.365869
H     -5.808232   -3.653329    1.780054
