50

C     -4.818881    0.754202    1.414822
C      4.996096    0.963399    1.471605
C     -2.450838   -3.068006   -0.099440
C     -4.840391    1.871760    0.427632
C      5.896944    0.722967    0.332436
C     -1.707560   -2.301178    0.892420
C     -4.579605    1.583492   -0.976920
C      5.436587   -0.030884   -0.844323
C     -3.334491    1.169788   -1.586313
C      4.304807    0.467772   -1.643789
C     -2.528734    0.000834   -1.163082
C      3.023948    0.508663   -0.872303
C     -1.792034    0.127712    0.095723
C      2.679152   -0.920174   -0.442512
C     -1.009136   -1.046923    0.599922
C      1.417102   -0.838909    0.327382
O      1.427765   -0.479007    1.516168
O      0.168424   -1.128660   -0.138158
H     -5.831142    0.580210    1.884022
H     -4.146590    0.977102    2.294758
H     -4.508715   -0.201572    0.958974
H      4.555277    1.989865    1.498790
H      4.285002    0.178170    1.698620
H      5.668224    0.988735    2.405536
H     -2.348247   -4.191712    0.077598
H     -2.151591   -2.964379   -1.157610
H     -3.558464   -2.954794   -0.070036
H     -4.211408    2.725957    0.817006
H     -5.892881    2.306778    0.487517
H      6.797706    0.142729    0.735462
H      6.376202    1.690792    0.004407
H     -0.935585   -2.985006    1.363238
H     -2.407119   -2.099983    1.764203
H     -5.360109    0.763299   -1.297642
H     -4.954525    2.474927   -1.633995
H      5.324035   -1.118279   -0.556726
H      6.335896   -0.085266   -1.552058
H     -2.599651    2.085705   -1.603644
H     -3.536237    1.123040   -2.719088
H      4.106739   -0.246112   -2.508692
H      4.514704    1.434455   -2.164523
H     -3.243960   -0.863781   -1.146894
H     -1.785766   -0.164951   -2.017888
H      2.999847    1.171716   -0.004607
H      2.180566    0.878191   -1.529425
H     -2.315779    0.718441    0.833781
H     -0.953264    0.913441   -0.195698
H      2.499414   -1.553071   -1.354073
H      3.455789   -1.368619    0.163543
H     -0.647525   -0.702878    1.602469
