41

C      4.316264    0.957260   -0.738510
C     -4.367000   -0.698419    0.319391
C     -0.741234   -1.254989   -1.741927
C      4.510197    0.119384    0.526071
C     -4.782653    0.730142    0.203612
C     -0.310249    0.120603   -1.344120
C      3.890202   -1.238044    0.354217
C      2.380720   -1.162823    0.078805
C      1.647938   -0.513543    1.182991
C     -3.987214    1.661311    1.092759
C      0.189310   -0.369203    1.116998
C     -0.472068    0.437876    0.086869
C     -2.540201    1.623234    0.779939
O     -1.884561    2.696634    0.873135
O     -1.885759    0.488963    0.398306
H      5.040221    1.789110   -0.697150
H      3.289162    1.351419   -0.787808
H      4.546002    0.331886   -1.633358
H     -5.276996   -1.336064    0.227423
H     -3.687724   -0.921606   -0.544719
H     -3.849699   -0.852225    1.281327
H     -1.076480   -1.243644   -2.782763
H     -1.455362   -1.659326   -1.020929
H      0.168244   -1.925853   -1.739851
H      4.106630    0.628230    1.397844
H      5.614600   -0.048054    0.594768
H     -4.700811    1.059228   -0.869009
H     -5.867723    0.825935    0.454028
H      0.616727    0.464444   -1.766384
H     -1.090789    0.796785   -1.892320
H      4.408294   -1.737209   -0.494564
H      4.106129   -1.848496    1.257721
H      2.071138   -2.217201   -0.092884
H      2.296536   -0.669864   -0.898788
H      2.088332    0.489118    1.433440
H      1.886643   -1.124807    2.118645
H     -4.187680    1.327189    2.137557
H     -4.430141    2.658501    0.990774
H     -0.106148    0.129991    2.112768
H     -0.334073   -1.380690    1.256423
H     -0.138723    1.514817    0.230327
