40

C     -4.220344    0.925800   -0.668582
C     -3.004089    1.402267    1.420796
C      1.808270   -2.523750   -1.026841
C     -0.460087   -2.238154   -1.763704
C      4.217467    2.307080    0.856533
C     -2.004198   -0.127041   -0.303766
C      2.195248    0.770861    0.396534
C     -0.694829    0.101760    0.326522
C      1.626311   -0.498398    0.966082
C     -2.880666    1.118089   -0.044004
C      0.675798   -1.474599   -1.123462
C      3.424209    1.082850    1.195130
C      0.354600   -0.933201    0.231931
O      3.819627    0.396803    2.108733
H     -4.158920    1.330006   -1.716210
H     -4.449021   -0.162425   -0.672981
H     -4.981537    1.490518   -0.090055
H     -3.222069    0.471168    1.955608
H     -3.872610    2.072989    1.562712
H     -2.123676    1.940872    1.832496
H      1.812942   -3.018473   -2.022195
H      1.578131   -3.290398   -0.281766
H      2.787633   -2.038724   -0.916249
H     -0.118685   -3.255341   -2.142048
H     -1.287067   -2.485530   -1.092808
H     -0.777052   -1.733789   -2.717631
H      4.714637    2.112123   -0.107020
H      3.524205    3.175029    0.749020
H      4.914964    2.565144    1.667646
H     -2.604773   -0.958382    0.107988
H     -2.012038   -0.223894   -1.403084
H      1.522125    1.653806    0.542319
H      2.530318    0.674703   -0.652672
H     -0.862556    0.366696    1.418829
H     -0.340775    1.106202   -0.075582
H      1.411386   -0.302775    2.037514
H      2.403848   -1.261809    0.928867
H     -2.330898    1.986347   -0.503885
H      1.095394   -0.702788   -1.813784
H     -0.011221   -1.821642    0.833070
