42

C      6.205557   -0.410287   -0.716594
C     -0.288870    2.537790   -0.379647
C      4.675241   -0.338038   -0.768571
C     -0.098040    1.260891   -1.167555
C      4.269393    0.711662    0.217812
C      2.757329    0.898833    0.277907
C     -6.613818   -1.091781    0.967438
C     -5.745327   -0.120649    1.452646
C     -6.121246   -1.991890    0.051829
C      2.050504   -0.335618    0.671591
C     -4.439551   -0.082634    1.015007
C     -4.800286   -1.931561   -0.372949
C      0.575104   -0.259331    0.783132
C     -3.927355   -0.973411    0.100011
C     -0.262653    0.014273   -0.405062
C     -2.538705   -0.919210   -0.354078
O     -2.153366   -1.773316   -1.193460
O     -1.627840    0.003636    0.076345
H      6.582921   -1.351257   -1.134282
H      6.559228   -0.249816    0.322122
H      6.647452    0.416838   -1.323866
H      0.736484    2.948205   -0.187135
H     -0.828276    2.325712    0.552978
H     -0.829498    3.324431   -0.943443
H      4.408074   -0.111836   -1.806091
H      4.328218   -1.351754   -0.489829
H     -1.056603    1.279057   -1.855915
H      0.683975    1.271994   -1.919563
H      4.702260    1.675895   -0.115759
H      4.672566    0.450076    1.205728
H      2.614305    1.637898    1.124867
H      2.439673    1.321826   -0.653763
H     -7.634417   -1.162225    1.276071
H     -6.144612    0.575744    2.167561
H     -6.813706   -2.752944   -0.324163
H      2.370200   -1.228463    0.060286
H      2.420405   -0.613128    1.710344
H     -3.795325    0.682328    1.411527
H     -4.426137   -2.639391   -1.088233
H      0.269005   -1.265610    1.258847
H      0.321937    0.448902    1.638022
H     -0.144200   -0.831841   -1.142115
