48

C     -4.195968    3.118193    0.888389
C      0.099586   -4.667948    0.087953
C     -1.856114   -3.440907    0.789789
C     -3.275458    2.160485    0.104306
C     -3.580187    0.782617    0.595791
C     -2.755790   -0.314919   -0.117305
C      5.270935    2.885239   -0.687125
C      4.732570    2.565254   -1.907998
C     -1.345759   -0.039241    0.135138
C      4.666788    2.438670    0.459672
C      3.595120    1.799872   -1.917693
C      0.112293   -2.205397   -0.048628
C     -0.757864   -3.383671   -0.271282
C     -0.236496   -0.833608   -0.357416
C      3.497589    1.652453    0.434451
C      2.949222    1.325314   -0.774190
C      2.954906    1.242777    1.707656
C      1.740154    0.517088   -0.936998
O      3.583268    1.629107    2.764875
O      1.852878    0.490803    1.993563
O      1.376479    0.314629   -2.157118
O      0.955552   -0.043135   -0.012917
H     -4.157150    2.868595    1.955190
H     -3.927382    4.166378    0.704644
H     -5.231107    2.937076    0.509221
H      0.856200   -4.387817    0.840498
H      0.614256   -4.977737   -0.836396
H     -0.575171   -5.462703    0.434474
H     -2.826278   -3.491322    0.266857
H     -1.824950   -2.559897    1.433079
H     -1.755456   -4.344763    1.447547
H     -3.404450    2.315198   -0.966276
H     -2.244730    2.519085    0.404533
H     -3.346681    0.765462    1.690961
H     -4.656686    0.559333    0.515907
H     -3.232807   -1.227488    0.162781
H     -3.033728   -0.159127   -1.224983
H      6.181473    3.496978   -0.651843
H      5.205787    2.916113   -2.837273
H     -1.171347    1.036573   -0.266877
H     -1.231682    0.145522    1.250159
H      5.123909    2.713362    1.410214
H      3.166189    1.544319   -2.872846
H      1.103553   -2.500887   -0.595441
H      0.508473   -2.264313    1.039354
H     -1.130944   -3.516844   -1.262059
H     -0.239216   -0.794783   -1.527661
H      1.846220   -0.289992    2.662177
