41

C     -5.125968    0.625130   -0.047286
C      5.610572    1.865779   -0.750100
C      1.044378   -2.656418    1.496703
C     -3.772400    1.301086   -0.072306
C      4.422983    0.985081   -1.132314
C      0.611126   -2.276731    0.111468
C     -2.842347    0.611616   -1.033642
C     -2.610945   -0.822744   -0.678824
C     -2.001583   -0.999823    0.689427
C      3.189197    1.674098   -0.535001
C     -0.678141   -0.342309    0.855148
C      0.394760   -0.825414   -0.089926
C      2.014061    0.860884   -0.876847
O      1.424137    0.869667   -1.976230
O      1.488526    0.009203    0.055464
H     -5.087986   -0.391238    0.391696
H     -5.530499    0.627821   -1.074789
H     -5.816902    1.225580    0.581106
H      5.614568    2.779448   -1.375364
H      5.402368    2.204200    0.294544
H      6.564506    1.312112   -0.838776
H      1.490519   -3.691968    1.415911
H      0.200844   -2.768155    2.208737
H      1.854791   -2.022003    1.895818
H     -3.336088    1.434976    0.923679
H     -3.950111    2.329220   -0.481953
H      4.578119   -0.001670   -0.652454
H      4.309066    0.883909   -2.221543
H     -0.361624   -2.784888   -0.067510
H      1.310116   -2.738547   -0.620259
H     -1.922525    1.192442   -1.165631
H     -3.363331    0.615227   -2.029588
H     -2.033300   -1.315098   -1.470316
H     -3.605926   -1.326690   -0.651944
H     -2.695800   -0.505973    1.405050
H     -1.975953   -2.062058    0.923348
H      3.322020    1.788826    0.548245
H      3.046533    2.674927   -0.992545
H     -0.794485    0.759114    0.646396
H     -0.381861   -0.411850    1.911468
H     -0.005414   -0.686768   -1.127460
