83

C    -10.244682    0.911871   -1.006257
C      9.294586   -0.341700    0.694887
C      6.483346    0.864890   -2.961865
C     -9.021952    0.515020   -0.194153
C      8.613445   -1.212620    1.723949
C      6.061833   -0.112451   -1.896609
C     -9.238219   -0.791663    0.521132
C      7.602567   -0.439292    2.542084
C     -8.060090   -1.223342    1.338296
C      6.508352    0.156571    1.715565
C     -6.850942   -1.400122    0.462383
C     -5.633800   -1.836348    1.222880
C     -5.219072   -0.858871    2.291288
C     -4.890729    0.495291    1.748570
C     -3.759966    0.501736    0.737840
C     -2.539935   -0.023249    1.389785
C     -1.317184   -0.023949    0.446749
C     -1.620974   -0.896531   -0.706642
C     -0.587291   -1.179298   -1.714701
C      0.064369   -0.146863   -2.511754
C      0.925462    0.852872   -1.804541
C      5.750949   -0.923479    0.983695
C      1.498518    1.779645   -2.895853
C      4.639523   -0.404942    0.131915
C      2.384489    2.839653   -2.351566
C      5.081416    0.542132   -0.945884
C      3.564936    2.301527   -1.664046
O      4.323813    3.102836   -1.049290
O      3.916092    0.979932   -1.636310
H    -10.161776    0.501459   -2.033419
H    -10.328982    2.008676   -1.103169
H    -11.124771    0.549903   -0.465698
H      8.620696    0.438520    0.293443
H     10.202541    0.133530    1.139205
H      9.558247   -0.993358   -0.165078
H      5.758648    0.895085   -3.799993
H      6.591228    1.876128   -2.514860
H      7.510799    0.617195   -3.357775
H     -8.188614    0.477090   -0.938760
H     -8.798561    1.355800    0.487907
H      8.162178   -2.086493    1.221004
H      9.364749   -1.605571    2.470389
H      6.957970   -0.377444   -1.300149
H      5.661259   -1.053737   -2.321130
H     -9.359489   -1.567463   -0.288617
H    -10.165040   -0.702031    1.105528
H      7.180521   -1.050420    3.356052
H      8.138255    0.408229    3.042371
H     -8.312754   -2.255725    1.722343
H     -7.881564   -0.616428    2.223462
H      6.833830    0.989324    1.079847
H      5.780356    0.608284    2.447032
H     -6.612066   -0.450054   -0.063702
H     -7.039167   -2.160697   -0.322354
H     -5.730767   -2.869214    1.608673
H     -4.790178   -1.869274    0.482782
H     -4.327209   -1.264140    2.802538
H     -6.020259   -0.703114    3.049613
H     -5.811967    0.956514    1.348697
H     -4.583069    1.130783    2.612281
H     -4.077769    0.031864   -0.192090
H     -3.577097    1.587470    0.509971
H     -2.267929    0.604222    2.248024
H     -2.635481   -1.076282    1.734310
H     -0.451928   -0.318382    1.033469
H     -1.290029    1.054601    0.107370
H     -2.552084   -0.519062   -1.231447
H     -1.937444   -1.899346   -0.268536
H     -1.069511   -1.931976   -2.442313
H      0.233592   -1.835588   -1.252297
H      0.698916   -0.633959   -3.333063
H     -0.706233    0.402961   -3.163549
H      1.756215    0.337341   -1.253122
H      0.434321    1.485514   -1.060502
H      5.301632   -1.599714    1.741296
H      6.398289   -1.554606    0.348862
H      2.078192    1.170128   -3.616773
H      0.640326    2.205361   -3.425992
H      3.878727    0.052139    0.791612
H      4.134344   -1.307548   -0.311605
H      1.858959    3.552192   -1.676049
H      2.745791    3.447941   -3.206684
H      5.592300    1.394114   -0.481174
