48

C      6.348498    0.838765   -0.970545
C     -1.177176   -3.121360    1.465897
C     -0.078034   -3.067279   -0.793061
C      4.975966    1.375751   -1.251429
C      3.914898    0.759800   -0.349690
C      2.594043    1.384743   -0.737393
C      1.451308    0.854177    0.089598
C     -5.571188    2.240825    1.287478
C     -4.838112    2.158877    2.427445
C     -5.085307    1.645140    0.165638
C     -3.661304    1.496522    2.416770
C      1.285611   -0.644314   -0.061702
C     -0.028443   -2.617037    0.629297
C     -3.851697    0.947193    0.141798
C     -3.099643    0.857654    1.292485
C      0.146492   -1.114427    0.773937
C     -3.419221    0.350886   -1.090896
C     -1.836787    0.188091    1.428087
O     -2.393613   -0.276886   -1.286912
O     -4.256404    0.492385   -2.216953
O     -1.304363    0.229586    2.604454
O     -1.068790   -0.495478    0.555394
H      7.086236    1.593209   -1.357103
H      6.556674   -0.117409   -1.487289
H      6.525167    0.788709    0.123157
H     -2.061694   -3.264533    0.814375
H     -0.925181   -4.153083    1.847614
H     -1.359288   -2.507837    2.349135
H     -0.644567   -2.391854   -1.450394
H     -0.593672   -4.050912   -0.818727
H      0.954700   -3.258029   -1.155552
H      4.722804    1.244495   -2.323113
H      5.031323    2.490092   -1.078443
H      4.194681    0.932843    0.688981
H      3.932352   -0.334276   -0.559098
H      2.462233    1.262184   -1.815892
H      2.678389    2.468064   -0.511764
H      0.547799    1.419281   -0.186647
H      1.673840    1.087674    1.151153
H     -6.526382    2.779968    1.301534
H     -5.201950    2.625638    3.339211
H     -5.659486    1.706214   -0.738084
H     -3.103815    1.451378    3.343141
H      2.224042   -1.092214    0.383874
H      1.271570   -0.973322   -1.099260
H      0.901986   -3.063888    1.088925
H      0.425407   -0.957480    1.857926
H     -4.159901   -0.168523   -3.004811
