48

C      4.909176    1.787290   -0.151634
C      1.294226   -3.792058   -0.772642
C     -1.051443   -3.449051   -1.339288
C      3.702366    2.482435    0.419301
C      3.235199    1.896980    1.709380
C      2.844015    0.442784    1.590824
C      1.702933    0.272179    0.579813
C     -5.129479    1.567330    1.125581
C     -4.307729    0.681107    1.767612
C     -4.816804    1.946471   -0.143138
C     -3.192480    0.186986    1.142330
C      1.389189   -1.209075    0.536499
C      0.059056   -3.029750   -0.376713
C     -3.690491    1.451337   -0.782929
C     -2.851711    0.567504   -0.171270
C      0.277407   -1.526196   -0.423960
C     -3.441217    1.913437   -2.138645
C     -1.652743   -0.018105   -0.724226
O     -2.516143    1.606321   -2.890217
O     -4.352334    2.835257   -2.708630
O     -1.144413    0.154559   -1.844827
O     -0.900618   -0.928748    0.072780
H      5.651524    1.508679    0.597969
H      5.400998    2.525232   -0.841334
H      4.557391    0.960794   -0.790177
H      2.099150   -3.738592   -0.012217
H      1.006140   -4.860441   -0.848887
H      1.651120   -3.499625   -1.783130
H     -1.449641   -4.408110   -0.960095
H     -0.612961   -3.630048   -2.323673
H     -1.884886   -2.720471   -1.333753
H      2.909034    2.494435   -0.328639
H      3.986009    3.539719    0.614041
H      3.988915    1.990767    2.503151
H      2.340742    2.452186    2.037030
H      2.506395    0.121083    2.596998
H      3.682864   -0.213553    1.303424
H      2.042029    0.650149   -0.405762
H      0.834196    0.876431    0.907551
H     -6.021885    1.951317    1.650082
H     -4.587522    0.397769    2.784670
H     -5.464249    2.643769   -0.646986
H     -2.583882   -0.507308    1.697915
H      2.317502   -1.716408    0.197703
H      1.080403   -1.508410    1.557945
H     -0.244697   -3.360973    0.634403
H      0.485664   -1.189603   -1.442947
H     -4.056316    3.402220   -3.516187
