53

C      6.232951   -1.240873   -0.705582
C     -5.247727   -0.058822   -0.672883
C     -1.332967   -3.092836   -0.625297
C      6.275352    0.253992   -0.731387
C     -5.452478    0.511617    0.709423
C     -1.821758   -2.411030    0.640011
C      5.665347    0.871974    0.508785
C     -4.762850    1.785997    0.975230
C      4.221659    0.457132    0.634866
C     -3.304573    1.910435    0.905050
C      3.385014    0.889864   -0.550126
C     -2.422902    1.158403    1.797515
C      1.966744    0.400961   -0.272875
C     -2.333012   -0.303099    1.771724
C      1.034094    0.780527   -1.402114
C     -1.839934   -0.912912    0.483970
C     -0.318603    0.271273   -1.057599
O     -1.249489    0.471675   -1.860472
O     -0.575023   -0.407548    0.107032
H      7.236607   -1.700444   -0.853807
H      5.861310   -1.606959    0.263391
H      5.528395   -1.605630   -1.492400
H     -4.428511    0.511596   -1.201185
H     -6.157284   -0.044714   -1.301770
H     -4.867854   -1.093129   -0.571205
H     -0.223109   -3.159623   -0.640995
H     -1.745882   -2.591821   -1.506565
H     -1.701973   -4.148501   -0.642267
H      7.347718    0.551594   -0.803392
H      5.786209    0.653510   -1.652311
H     -5.368078   -0.289642    1.438847
H     -6.588155    0.744377    0.731203
H     -2.819173   -2.821048    0.888998
H     -1.137619   -2.725805    1.456335
H      5.788999    1.965284    0.497984
H      6.202503    0.453813    1.379581
H     -5.182702    2.165201    1.968740
H     -5.238009    2.541268    0.250741
H      4.153040   -0.630061    0.798229
H      3.774375    0.932184    1.540818
H     -3.078464    3.018386    1.109574
H     -2.995521    1.841589   -0.183446
H      3.764062    0.459085   -1.491440
H      3.426690    1.990987   -0.591328
H     -2.706419    1.445835    2.862397
H     -1.367963    1.575669    1.722393
H      1.615380    0.827593    0.668205
H      1.994613   -0.697948   -0.165300
H     -3.256660   -0.814503    2.065402
H     -1.605437   -0.593798    2.597153
H      1.358400    0.287871   -2.334747
H      1.040083    1.873726   -1.555860
H     -2.529418   -0.652673   -0.323393
