48

C      6.579246   -0.742865   -0.141649
C      1.604461    2.463774   -0.218610
C      5.242442   -1.111910   -0.703447
C      1.403882    1.807050    1.087182
C      4.451746    0.161877   -0.952315
C      3.084896   -0.137662   -1.522371
C      2.214117   -0.958677   -0.706015
C     -7.109859   -0.336843   -1.224124
C     -6.139101   -0.036409   -2.171644
C     -6.767542   -0.516123    0.098049
C     -4.820251    0.078727   -1.757295
C      1.784326   -0.703380    0.639416
C     -5.081030   -0.571218    1.802850
C     -3.764151   -0.454683    2.207459
C     -3.141537    0.016461   -0.017262
C     -5.450365   -0.393239    0.466037
C     -4.455215   -0.096304   -0.441133
C     -2.779398   -0.158710    1.297347
C      0.982879    0.397467    1.156859
C     -1.360635   -0.018620    1.648846
O     -1.091994   -0.193628    2.885756
O     -0.401167    0.277230    0.718629
H      7.052819   -1.564140    0.436115
H      6.499669    0.189203    0.472521
H      7.261980   -0.497310   -0.984591
H      1.310390    3.553655   -0.205106
H      2.680439    2.486540   -0.468755
H      1.053425    1.992889   -1.053965
H      5.413524   -1.559053   -1.719428
H      4.683565   -1.847200   -0.112268
H      2.299894    1.932950    1.772736
H      0.622677    2.439056    1.634795
H      4.426827    0.822257   -0.075206
H      5.006569    0.710759   -1.745125
H      2.711754    0.738385   -2.049103
H      3.380977   -0.812119   -2.444792
H      1.251407   -1.113267   -1.336773
H      2.616659   -2.048667   -0.767082
H     -8.131566   -0.420730   -1.575902
H     -6.441376    0.098414   -3.202784
H     -7.544962   -0.746513    0.797586
H     -4.083662    0.310580   -2.498880
H      2.652719   -0.817128    1.401076
H      1.191831   -1.659889    0.964208
H     -5.884680   -0.802803    2.487807
H     -3.527213   -0.597474    3.231201
H     -2.387159    0.249380   -0.750361
H      0.897741    0.189910    2.292268
