48

C     -6.998102   -0.009945   -0.902441
C     -0.692878   -0.983776    2.895420
C     -5.517870   -0.375562   -1.050721
C     -1.017967    0.326578    2.208001
C     -4.709621    0.766393   -0.471512
C     -3.220445    0.523096   -0.562606
C     -2.905680   -0.736013    0.210690
C      6.437962    1.678922   -1.557743
C      5.205066    2.231246   -1.681341
C      4.551709   -1.839831    1.043259
C      6.546591    0.516463   -0.834721
C      5.619750   -1.225425    0.451567
C     -1.418131   -1.008314    0.142465
C      4.060246    1.677979   -1.114453
C      3.312374   -1.275742    0.913337
C      5.432959   -0.054226   -0.262501
C     -0.619538    0.141763    0.739390
C      4.169238    0.515722   -0.391629
C      3.083477   -0.093841    0.200270
C      1.751014    0.449909    0.100697
O      1.351784    1.462591   -0.472647
O      0.733148   -0.275516    0.754299
H     -7.573689   -0.934309   -0.840220
H     -7.104941    0.540510    0.063351
H     -7.328025    0.608162   -1.773898
H     -1.574377   -1.647516    2.930391
H      0.097676   -1.547200    2.351044
H     -0.313867   -0.830600    3.924378
H     -5.266996   -0.476033   -2.106969
H     -5.381900   -1.281812   -0.442586
H     -0.356073    1.101561    2.633298
H     -2.066154    0.605104    2.323670
H     -4.950434    1.730267   -0.934076
H     -4.947559    0.772016    0.630517
H     -2.730703    1.383779   -0.055318
H     -2.885949    0.438858   -1.624879
H     -3.382626   -1.614849   -0.308433
H     -3.273228   -0.624341    1.230256
H      7.329540    2.130035   -2.012168
H      5.108679    3.149178   -2.250301
H      4.720839   -2.751033    1.594373
H      7.524000    0.034664   -0.708649
H      6.602373   -1.671674    0.553941
H     -1.102093   -1.093692   -0.915636
H     -1.140827   -1.925721    0.697101
H      3.104374    2.167750   -1.249620
H      2.463896   -1.746112    1.372047
H     -0.727025    1.070539    0.165350
