39

C      3.838118   -0.613117    2.977890
C     -1.752259   -1.763040   -1.058597
C     -0.754984   -0.974514   -1.859349
C     -1.761045   -1.403908    0.405049
C      1.777621    0.530757    2.107773
C      3.671718    0.400934    0.713525
C      1.097719    1.206613    1.110360
C      2.995171    1.074661   -0.281887
C      3.079946    0.115098    1.926093
C      1.684291    1.495253   -0.104293
C     -1.015814    0.481160   -1.790362
C     -2.758398   -2.223494    1.153234
C     -2.337285    0.913776   -2.291422
N     -2.356336   -2.976697    2.111475
N     -0.003105    1.297345   -2.405376
O     -4.108535   -2.204869    0.854474
O     -2.391097    1.846597   -3.129975
O     -3.551976    0.369852   -1.909267
O     -0.061826    3.353564   -0.688359
O      1.836660    3.109141   -2.163707
S      0.816689    2.350233   -1.361468
H      3.118897   -1.060779    3.691373
H      4.502681    0.076000    3.550083
H      4.472131   -1.407716    2.572349
H     -1.467963   -2.864790   -1.080050
H     -2.784750   -1.756814   -1.496272
H      0.237411   -1.177916   -1.411283
H     -0.830409   -1.344127   -2.904444
H     -2.070328   -0.346847    0.548422
H     -0.758265   -1.556401    0.818646
H      1.321905    0.299386    3.068318
H      4.690343    0.085666    0.548010
H      0.076127    1.506171    1.317715
H      3.451630    1.299349   -1.227245
H     -0.993788    0.780183   -0.699203
H     -1.350904   -3.007267    2.353408
H     -0.369067    1.733682   -3.263120
H     -4.764808   -2.328256    1.614578
H     -4.426116    0.685251   -2.317094
