24

C     -3.105978   -0.877479    0.028303
C     -1.760193   -0.427003    0.545763
C     -1.028554    0.244341   -0.610897
C      2.911393   -0.447797   -1.252824
C      0.348868    0.721277   -0.134633
C      2.149436   -0.888660   -0.072115
C      0.110625    1.692172    0.977966
Br     4.712505    0.067286   -0.719101
N      1.084365   -0.383395    0.371820
O      2.670657   -1.992652    0.632265
O      0.519902    1.497901    2.135797
O     -0.597826    2.853808    0.692777
H     -3.538464   -0.192425   -0.704789
H     -3.810593   -1.111906    0.872074
H     -2.939865   -1.850767   -0.513970
H     -1.169349   -1.298155    0.913805
H     -1.891173    0.277742    1.389754
H     -0.896146   -0.503308   -1.413382
H     -1.634718    1.105277   -0.949172
H      3.037517   -1.290630   -1.983109
H      2.455266    0.377057   -1.796727
H      0.833238    1.272297   -0.941811
H      2.041357   -2.523429    1.231585
H     -0.502271    3.678448    1.300620
