26

C     -1.964611    1.627784   -0.762410
C      1.737147   -0.584577    0.682639
C      0.789828   -1.429712   -0.103786
C      2.251947    0.613755   -0.082603
C     -1.911059    0.862073    0.507456
C     -0.458692   -0.678916   -0.556380
C     -1.272085   -1.650800   -1.304700
N     -1.209213   -0.204032    0.586946
N      3.153776    1.336828    0.779069
O     -2.628407    1.324705    1.584133
O     -0.813118   -2.185229   -2.329482
O     -2.533945   -1.964897   -0.870487
O      2.687498    1.833247    1.958819
O      4.327487    1.487918    0.425200
H     -2.040604    0.916691   -1.634556
H     -2.878631    2.249548   -0.784255
H     -1.037033    2.248218   -0.916290
H      2.623085   -1.169532    0.979862
H      1.268687   -0.234565    1.634136
H      1.349871   -1.808531   -0.992540
H      0.522666   -2.328845    0.479121
H      1.344863    1.236559   -0.335867
H      2.745850    0.259646   -1.009653
H     -0.153662    0.185041   -1.186881
H     -2.793263    0.754202    2.401352
H     -3.108380   -2.696580   -1.240679
