45

C     -6.994556   -0.586276   -0.692307
C      2.260229   -0.774792    1.248957
C      0.941932   -0.220686    1.592886
C      2.834538   -0.353766   -0.076976
C     -4.852671    0.031340   -1.812140
C     -4.997641    0.281748    0.532987
C     -3.553916    0.492133   -1.820619
C     -3.694063    0.743648    0.519401
C      5.134732    1.174243   -0.453859
C     -5.594252   -0.083493   -0.655547
C     -2.936502    0.865545   -0.625666
C     -0.221678   -0.541466    0.704341
C      4.177190   -0.966477   -0.290874
C      6.466921    1.802933   -0.715902
C     -0.526259   -1.954549    0.562471
N      5.224005   -0.252803   -0.462451
N     -0.131266    0.210559   -0.501629
O      4.289086   -2.339420   -0.303428
O      7.443669    1.033865   -0.900417
O      6.622292    3.168001   -0.754457
O     -0.710166   -2.537367   -0.537857
O     -0.627308   -2.740075    1.703836
O     -1.003931    2.280389   -1.854162
O     -1.146479    2.363870    0.559378
S     -1.286706    1.455660   -0.631185
H     -7.595942    0.037585    0.013060
H     -7.440298   -0.457617   -1.687015
H     -7.045472   -1.650463   -0.383279
H      2.315454   -1.888516    1.286383
H      2.989006   -0.372838    2.021897
H      0.656005   -0.465963    2.666994
H      1.087567    0.907614    1.665057
H      2.155452   -0.571365   -0.900143
H      2.981035    0.745472   -0.019200
H     -5.341010   -0.262099   -2.742375
H     -5.570917    0.196851    1.457123
H     -2.970240    0.582982   -2.727359
H     -3.233779    1.031254    1.463223
H      4.414281    1.543897   -1.215763
H      4.777015    1.507496    0.545185
H     -1.141632   -0.092764    1.232490
H     -0.065066   -0.378180   -1.367778
H      5.168552   -2.832278   -0.460724
H      7.543020    3.608631   -0.622657
H     -0.800230   -3.742461    1.628838
