30

C      3.251192    0.871743    0.780793
C     -3.105840    0.146923    0.098430
C     -2.571757    0.065783   -1.332024
C     -2.258604   -0.803452    0.913688
C     -1.215881    0.741565   -1.304187
C     -0.821487   -0.363026    0.914396
C      0.987880    0.770382   -0.259276
C      2.384028   -1.280405   -0.010749
C      1.979014    0.032990    0.615226
C     -0.272754   -0.047607   -0.428094
Br     3.196991   -0.946830   -1.718523
H      3.423542    1.526142   -0.083479
H      3.191543    1.434029    1.748768
H      4.104573    0.171765    0.884187
H     -4.158584   -0.134589    0.167927
H     -2.894181    1.169077    0.491705
H     -2.434055   -1.006219   -1.623473
H     -3.249464    0.517692   -2.056029
H     -2.314033   -1.843442    0.499907
H     -2.597649   -0.780003    1.986758
H     -0.780385    0.779115   -2.320407
H     -1.368722    1.781954   -0.941818
H     -0.227630   -1.188512    1.359353
H     -0.687529    0.504060    1.608111
H      0.789125    1.781656    0.121896
H      1.432142    0.891639   -1.268763
H      1.516360   -1.932937   -0.110300
H      3.151155   -1.762024    0.649509
H      1.569887   -0.130345    1.626907
H     -0.018875   -0.967125   -1.010438
