30

C     -2.321059    0.990101    0.375671
C      2.871931    0.947695   -0.038896
C      2.160457    0.833988    1.278360
C      2.148300    0.028130   -1.010955
C      0.643499    0.744215    0.962291
C      1.616675   -1.143368   -0.239153
C     -0.765287   -0.826331   -0.428075
C     -3.122662   -0.881948   -1.053750
C     -2.113550   -0.436475    0.018212
C      0.370478   -0.656040    0.516397
Br    -4.920779   -0.667174   -0.386499
H     -2.062382    1.261564    1.417746
H     -3.439387    1.235439    0.228591
H     -1.761154    1.678150   -0.293131
H      2.783195    1.983752   -0.415224
H      3.945428    0.678227    0.037628
H      2.308298    1.744599    1.875180
H      2.466485   -0.048927    1.871241
H      2.842548   -0.282952   -1.827395
H      1.322734    0.610955   -1.460176
H      0.490700    1.477948    0.171061
H      0.164888    1.019756    1.929742
H      2.344039   -1.547795    0.489302
H      1.307114   -1.985795   -0.892177
H     -0.502697   -0.236251   -1.371301
H     -0.785014   -1.888571   -0.852348
H     -2.935029   -0.262890   -1.939243
H     -2.926020   -1.955085   -1.251453
H     -2.379163   -1.089443    0.914998
H      0.247412   -1.325472    1.429297
