30

C      1.270012   -1.401715   -0.968554
C     -3.050396    0.365403    0.095327
C     -2.406936   -0.998477    0.068655
C     -2.052866    1.467370   -0.166736
C     -1.111296   -1.032715    0.843004
C     -0.749286    0.851090   -0.687863
C      2.127430    0.743026    0.007616
C      3.585148    0.365084   -0.117384
C      1.225620   -0.431191    0.165520
C     -0.168598    0.071490    0.470142
Br     4.677984    1.945331   -0.317682
H      2.013312   -2.196537   -0.744340
H      1.505504   -0.905230   -1.936324
H      0.292596   -1.880156   -1.089501
H     -3.844391    0.394819   -0.667698
H     -3.545150    0.499674    1.085485
H     -3.115214   -1.692660    0.583104
H     -2.244329   -1.345136   -0.955325
H     -1.797026    1.949199    0.805786
H     -2.429310    2.245614   -0.837547
H     -1.360184   -0.946036    1.932808
H     -0.654709   -2.018006    0.711589
H     -1.023692    0.183095   -1.534818
H     -0.125994    1.693837   -1.006897
H      1.877094    1.320722   -0.917760
H      1.979353    1.428227    0.858418
H      3.894815   -0.170029    0.813934
H      3.741375   -0.316354   -0.962260
H      1.552377   -0.980883    1.096310
H     -0.063243    0.791143    1.314116
