27

C      2.945728    1.261350    0.651241
C      1.665994    0.442300    0.538700
C      1.725259   -0.517957   -0.612306
C      0.491317   -1.322388   -0.723057
C     -0.788629   -0.616285   -0.934846
C     -0.788876    0.197560   -2.201999
C     -2.053597   -0.318428    1.016962
C     -2.599111    0.507361    2.142167
F     -3.975449    0.465100    2.075772
F     -2.173164    1.812938    2.056001
F     -2.202353   -0.071358    3.322132
N     -1.289620    0.184920    0.116453
O     -0.385102   -0.300552   -3.280872
O     -1.228575    1.510218   -2.227433
O     -2.432152   -1.660190    1.018933
H      3.005967    1.593991    1.716219
H      2.858870    2.163097    0.029995
H      3.837471    0.689280    0.365618
H      0.829848    1.163768    0.390977
H      1.575558   -0.137146    1.477997
H      2.560218   -1.240713   -0.368723
H      2.048777   -0.038317   -1.559317
H      0.638856   -2.044365   -1.578731
H      0.445266   -1.983813    0.174662
H     -1.559927   -1.424074   -1.131178
H     -1.284648    2.051939   -3.092393
H     -1.867925   -2.368237    0.617027
