33

C      2.630468    0.129243   -1.764652
C     -3.448875    0.033357   -0.171160
C     -2.838090   -0.753680    0.973837
C     -2.282183    0.576967   -0.980304
C     -1.489506   -1.263508    0.545330
C     -1.264279    1.087554    0.030792
C      2.321537    0.834227    0.610281
C      3.012895   -0.410448    1.149553
C      0.572532   -0.454662   -0.546546
C      1.624274    0.586537   -0.698707
C     -0.465889   -0.110249    0.480538
Br     3.863222    0.069412    2.826935
H      2.793706   -0.974719   -1.699068
H      3.555680    0.705311   -1.632068
H      2.148861    0.332271   -2.740606
H     -4.056082    0.851045    0.225550
H     -4.072335   -0.635612   -0.794824
H     -3.472597   -1.637065    1.184532
H     -2.738505   -0.132406    1.884737
H     -2.605862    1.378856   -1.671470
H     -1.880472   -0.237186   -1.610747
H     -1.098797   -1.978339    1.325817
H     -1.542230   -1.826929   -0.385852
H     -1.811434    1.556266    0.892192
H     -0.603592    1.835052   -0.420595
H      3.098185    1.644849    0.465556
H      1.581971    1.185383    1.353413
H      3.817476   -0.699918    0.454102
H      2.289847   -1.216941    1.277119
H      1.039064   -1.439599   -0.301693
H      0.106614   -0.616809   -1.559295
H      1.250846    1.559115   -1.071577
H     -0.036450    0.022626    1.489367
