39

C     -2.949670    2.511414   -0.797754
C     -3.599344    0.359163   -1.945444
C      0.621778   -1.259071    1.552894
C     -3.056363   -1.463625    0.490305
C      5.434652   -0.222924    0.575340
C      4.729010    0.700695   -0.160543
C      4.750928   -1.206049    1.249608
C      3.348457    0.627104   -0.211067
C      3.359439   -1.268092    1.189709
C     -2.629248    1.127273   -1.122882
C      1.128780   -0.400363    0.378274
C     -2.007637   -1.669863   -0.513768
C      2.640687   -0.349782    0.456781
C     -1.484554    0.590877   -0.686532
C     -0.528071    1.304347    0.098137
N      0.557284    0.877649    0.535032
N     -1.285243   -0.760288   -1.059213
O     -1.760788   -2.987181   -0.926486
O     -0.797552    2.657522    0.447169
H     -3.074642    2.719571    0.290045
H     -3.963788    2.755994   -1.230239
H     -2.197825    3.174427   -1.286513
H     -3.833253    1.025197   -2.820053
H     -3.214457   -0.580075   -2.343767
H     -4.534237    0.160702   -1.385405
H      0.710904   -2.330905    1.332464
H     -0.399751   -0.913295    1.765519
H      1.272322   -0.945807    2.415691
H     -2.816871   -2.073586    1.385667
H     -3.014077   -0.391049    0.814782
H     -4.083901   -1.686679    0.112153
H      6.519822   -0.140593    0.596981
H      5.259047    1.481556   -0.697092
H      5.310407   -1.920917    1.820175
H      2.778892    1.354396   -0.791583
H      2.839086   -2.049169    1.726548
H      0.917731   -0.960095   -0.533677
H     -0.902030   -3.202209   -1.413926
H     -0.045925    3.288990    0.692671
