36

C      3.115655   -1.481995    1.058617
C     -4.104121    0.268145    0.067372
C     -3.383916   -0.716911    0.910692
C     -3.171587    0.664350   -1.085452
C     -1.919418   -0.642294    0.933710
C     -2.088304    1.491494   -0.392853
C      0.975377   -0.410140    0.663670
C      0.040182    0.313952   -0.263998
C      2.958253    0.523349   -0.422268
C      4.335536    0.263609   -1.006975
C      2.288131   -0.758102    0.005501
C     -1.276773    0.614677    0.481166
Br     5.053547    2.009473   -1.503280
H      3.121218   -0.951009    2.011186
H      2.592796   -2.456399    1.239417
H      4.123068   -1.751299    0.681157
H     -4.325981    1.190229    0.674485
H     -5.048512   -0.149808   -0.294427
H     -3.737115   -1.746843    0.605060
H     -3.788200   -0.608673    1.961423
H     -2.703814   -0.240434   -1.498913
H     -3.695702    1.276683   -1.830209
H     -1.540050   -0.914292    1.960756
H     -1.512076   -1.471366    0.279382
H     -1.471290    1.964407   -1.167827
H     -2.644444    2.252788    0.207379
H      1.146794    0.240186    1.569827
H      0.480304   -1.323529    1.085418
H      0.502080    1.297765   -0.563694
H     -0.195725   -0.287694   -1.139589
H      2.346323    0.984892   -1.235777
H      3.037405    1.237109    0.403738
H      4.999289   -0.137002   -0.214838
H      4.302965   -0.339088   -1.914246
H      2.142191   -1.419160   -0.855479
H     -0.954082    1.212928    1.365675
