58

C     -0.819793    3.899286    1.041586
C     -3.967841    6.282740   -1.483998
C      6.669643   -1.288942   -2.619445
C      7.131100   -0.460716   -0.286220
C     -3.921413   -4.965472    0.181285
C     -4.018305   -4.445425    2.619818
C      2.806461    0.659518   -1.094771
C      2.743493   -1.511710   -0.235829
C      4.173048    0.522587   -1.368625
C      4.080124   -1.675589   -0.492024
C     -2.891225   -1.829764    1.975285
C     -2.785956   -2.444922   -0.311973
C     -2.340542   -0.591823    1.694026
C     -2.230924   -1.206723   -0.619225
C     -1.698702    3.473077   -0.146963
C     -2.887947    5.295856   -1.336710
C      2.060542   -0.319858   -0.535382
C      4.809433   -0.652726   -1.063917
C     -3.120174   -2.767028    0.983838
C     -2.026838   -0.321540    0.394761
C     -2.207221    2.131274    0.099871
C     -0.062056    0.969986   -0.234418
N      0.703323   -0.213376   -0.230811
N      6.205794   -0.804523   -1.335638
N     -3.680104   -4.041225    1.256976
N     -1.455009    0.960204    0.094833
O     -1.968362    5.177904   -2.218275
O     -3.457641    2.011807    0.344153
O      0.472754    2.048422   -0.526989
O     -2.770074    4.429125   -0.261540
H      0.110283    4.377971    0.744673
H     -0.597142    3.058167    1.718206
H     -1.430309    4.616778    1.642974
H     -4.679769    6.088784   -2.289486
H     -3.574076    7.327287   -1.636394
H     -4.509143    6.316572   -0.512282
H      6.841088   -2.365772   -2.578374
H      5.962298   -1.029748   -3.441288
H      7.635355   -0.760019   -2.842657
H      7.011735   -1.260790    0.496617
H      8.185907   -0.449175   -0.646992
H      6.891441    0.493396    0.197220
H     -4.536133   -5.789449    0.548875
H     -2.970465   -5.413189   -0.199146
H     -4.382560   -4.441691   -0.691116
H     -4.076471   -5.536655    2.637005
H     -5.000169   -4.049360    2.934110
H     -3.219028   -4.080258    3.316933
H      2.402647    1.610541   -1.378768
H      2.201225   -2.327045    0.211061
H      4.727122    1.330295   -1.815587
H      4.605378   -2.591055   -0.260433
H     -3.152989   -2.078893    2.990815
H     -2.926337   -3.109448   -1.143096
H     -2.165649    0.139640    2.489754
H     -1.957624   -0.920592   -1.619644
H     -1.088131    3.617902   -1.049979
H      0.145928   -1.094617    0.036044
