58

C      0.026592    3.480086   -1.307701
C     -2.821869    6.245996    1.058276
C      7.693240   -0.438708    0.562259
C      6.829623   -2.788620    0.813994
C     -5.968802   -3.457588   -1.991876
C     -5.730070   -4.020427    0.455484
C      2.841457   -1.230524    0.485616
C      3.736309    0.923676    0.231475
C      4.157707   -1.711323    0.598457
C      5.023939    0.466273    0.340272
C     -3.865730   -1.571892   -1.706753
C     -3.649635   -2.101879    0.585314
C     -2.832451   -0.632337   -1.591131
C     -2.615717   -1.159871    0.694001
C     -0.852496    3.137144   -0.126218
C     -1.870596    5.110907    0.966682
C      2.613455    0.094326    0.299877
C      5.242267   -0.878578    0.527394
C     -4.273830   -2.301768   -0.631594
C     -2.219052   -0.433806   -0.400755
C     -1.548795    1.861638   -0.226625
C      0.110443   -0.008260   -0.074174
N      1.316887    0.632338    0.152947
N      6.575673   -1.377241    0.636459
N     -5.328876   -3.269602   -0.707765
N     -1.134623    0.544644   -0.217891
O     -1.069934    4.951139    1.926344
O     -2.863915    1.994056   -0.355605
O      0.177269   -1.297031   -0.159602
O     -1.813255    4.238374   -0.087830
H     -0.395914    4.283339   -1.938862
H      0.232765    2.619115   -1.967341
H      1.029178    3.843713   -0.970127
H     -3.698850    5.959967    1.667710
H     -3.099234    6.641647    0.060367
H     -2.305553    7.076358    1.581410
H      7.609947    0.223078   -0.304118
H      7.648903    0.172236    1.488978
H      8.644474   -1.001217    0.599311
H      7.876310   -2.902855    1.192680
H      6.813647   -3.259364   -0.191249
H      6.158628   -3.286653    1.521974
H     -6.339992   -2.477107   -2.412356
H     -6.882334   -4.087010   -1.846703
H     -5.329196   -3.978777   -2.719877
H     -4.920227   -4.630143    0.888135
H     -6.103264   -3.298519    1.222084
H     -6.621694   -4.642442    0.195979
H      2.075832   -1.987497    0.569015
H      3.574478    2.000813    0.082275
H      4.272288   -2.765462    0.743658
H      5.875640    1.133504    0.282849
H     -4.352196   -1.728892   -2.652512
H     -3.964576   -2.676089    1.447057
H     -2.514062   -0.057874   -2.446340
H     -2.180705   -1.065291    1.680578
H     -0.271742    3.199898    0.795356
H      1.282230    1.690381    0.253636
