33

C      4.232551    0.344230    0.581960
C      0.783740   -1.405553   -1.236965
C      3.136689    0.058382   -0.414631
C     -3.428861    0.509748    0.213734
C     -2.448898    0.307319    1.338038
C     -2.955960   -0.227732   -1.015312
C      1.763817    0.304332    0.218813
C     -1.160532   -0.350389    0.855186
C     -1.661659    0.454996   -1.459530
C      0.684842    0.010470   -0.800977
C     -0.669268    0.426940   -0.319308
H      4.403050   -0.580097    1.174403
H      3.948240    1.192266    1.248878
H      5.138738    0.633132    0.001545
H     -0.188876   -1.939068   -1.271217
H      1.408366   -1.986882   -0.505540
H      1.326940   -1.503924   -2.213810
H      3.214666    0.689472   -1.314259
H      3.190354   -1.009590   -0.704940
H     -3.399864    1.606824   -0.048347
H     -4.447139    0.196853    0.447275
H     -2.180869    1.239359    1.846292
H     -2.892990   -0.403554    2.078705
H     -3.678519   -0.123693   -1.844668
H     -2.816649   -1.296384   -0.819672
H      1.705946   -0.403136    1.073246
H      1.678590    1.317930    0.617391
H     -1.401171   -1.395188    0.647351
H     -0.428737   -0.218360    1.680013
H     -1.944079    1.472103   -1.767951
H     -1.252391   -0.071593   -2.340906
H      0.909576    0.651823   -1.703673
H     -0.569640    1.498964    0.019317
