24

C     -2.515215   -0.081396    0.725491
C      2.274009    0.167225   -0.224572
C      1.652679   -1.208614   -0.132371
C      1.452372    1.095594    0.634624
C      0.168164   -1.190999   -0.042839
C      0.102860    1.318678    0.001109
C     -1.911510    0.045982   -0.638834
C     -0.408882    0.059309   -0.629456
Cl    -2.556829   -1.264401   -1.652433
H     -2.241609   -1.020991    1.241229
H     -3.619606   -0.113643    0.595587
H     -2.313096    0.781114    1.390490
H      2.363605    0.497947   -1.264996
H      3.309190    0.160452    0.207621
H      2.064744   -1.685291    0.778314
H      2.000644   -1.830633   -0.989069
H      1.960718    2.070422    0.748048
H      1.323623    0.625937    1.614588
H     -0.139977   -1.283581    1.023288
H     -0.219411   -2.045671   -0.642363
H     -0.579407    1.664534    0.778796
H      0.199986    2.153602   -0.735168
H     -2.278100    0.996301   -1.078833
H     -0.088953    0.088122   -1.708252
