27

C      3.695153    0.068490   -0.362928
C      2.358334   -0.543338   -0.049303
C     -2.853191   -0.230294   -0.005116
C     -1.901925   -1.399118   -0.020493
C     -2.351919    0.857819    0.888403
C     -0.582854   -0.841576   -0.574239
C     -0.919476    1.182637    0.755071
C     -0.015331   -0.005808    0.539528
C      1.354019    0.549162    0.216490
Cl     1.878274    1.522295    1.604298
H      3.534033    1.115571   -0.668507
H      4.376455   -0.029493    0.517860
H      4.201767   -0.453241   -1.209469
H      2.462409   -1.243643    0.775471
H      2.035913   -1.096605   -0.957987
H     -3.861655   -0.521778    0.341874
H     -2.910283    0.187019   -1.038173
H     -2.270192   -2.231749   -0.617556
H     -1.756277   -1.716501    1.028153
H     -2.943918    1.784482    0.632358
H     -2.619985    0.638495    1.956239
H      0.068853   -1.629795   -0.936853
H     -0.850044   -0.122639   -1.400525
H     -0.574416    1.711101    1.675364
H     -0.781219    1.846016   -0.140050
H     -0.009159   -0.599344    1.481243
H      1.236630    1.201834   -0.662923
