27

C      2.129037   -0.927828    1.301248
C      2.349791   -0.679595   -0.150053
C     -2.113577    1.355726    0.171039
C     -1.404950    1.661911   -1.156520
C     -2.207472   -0.148563    0.244068
C      0.009236    1.144785   -0.983589
C     -0.771713   -0.675255    0.424889
C     -0.056521   -0.344734   -0.862384
C      1.241305   -1.034506   -1.066495
Cl     1.055870   -2.820060   -1.021136
H      1.385085   -1.685634    1.547477
H      3.076550   -1.285463    1.813257
H      1.955448    0.067241    1.807736
H      3.227666   -1.327427   -0.449001
H      2.746832    0.364106   -0.338546
H     -1.448581    1.767847    0.964943
H     -3.093988    1.843636    0.124289
H     -1.394959    2.778114   -1.302115
H     -1.926426    1.145891   -1.979714
H     -2.870838   -0.507861    1.035469
H     -2.507786   -0.512292   -0.776238
H      0.375843    1.589082   -0.018527
H      0.589922    1.503697   -1.848314
H     -0.795186   -1.770537    0.613210
H     -0.352407   -0.068654    1.226839
H     -0.791489   -0.667832   -1.670809
H      1.593307   -0.765796   -2.105978
