33

C     -3.113925   -1.344177    0.237442
C      3.575398   -1.785868   -1.260825
C     -0.680907   -2.213657    1.095684
C     -1.778800    3.927129    0.569184
C     -1.868014   -0.694343   -0.332039
C      2.955123    0.558306   -0.753598
C      2.061974    1.485619   -0.268837
C      1.394137   -1.138210   -0.214332
C      2.631162   -0.765735   -0.731899
C     -0.823707   -0.707537    0.798659
C     -0.886766    2.882198   -0.025038
C      0.486518   -0.201566    0.277897
C      0.811525    1.130411    0.255805
O     -0.906866    2.672083   -1.283097
O     -0.030263    2.119104    0.720543
H     -3.286771   -2.322196   -0.293491
H     -4.015523   -0.713783    0.071885
H     -3.058853   -1.544517    1.322517
H      3.534651   -1.786261   -2.367313
H      3.270185   -2.811776   -0.934433
H      4.580168   -1.613549   -0.835797
H     -0.704159   -2.823730    0.191487
H      0.341632   -2.320666    1.563243
H     -1.399676   -2.543728    1.874687
H     -2.694212    4.057193   -0.010478
H     -1.208201    4.884003    0.556743
H     -1.957348    3.624571    1.635283
H     -2.055086    0.310546   -0.709681
H     -1.453234   -1.342581   -1.137850
H      3.925681    0.832999   -1.161012
H      2.335438    2.532995   -0.294736
H      1.183026   -2.194116   -0.228431
H     -1.164308   -0.149158    1.671826
