53

C     -4.352209   -5.193297    0.025594
C      7.419510   -0.409327   -1.341573
C     -2.852246    5.561551   -0.050899
C     -4.896572   -4.038811    0.560227
C     -3.107160   -5.187824   -0.520312
C      7.217595   -0.162671   -0.006761
C      6.346137   -0.470638   -2.189200
C     -1.750202    5.453943    0.772055
C     -3.300255    4.462879   -0.743465
C     -4.143931   -2.866716    0.529223
C     -2.380758   -4.003227   -0.536587
C      5.911976    0.022271    0.464155
C      5.051487   -0.285144   -1.710047
C     -1.100860    4.242646    0.897221
C     -2.668919    3.259561   -0.629794
C     -2.073327   -1.573691   -0.050219
C     -1.233234   -1.426107    1.172057
C      3.476656    0.159332    0.139483
C     -2.881130   -2.832297   -0.017083
C      4.831471   -0.037400   -0.377250
C     -1.572793    3.163658    0.192228
C     -0.391638   -0.192166    1.256062
C     -1.180421    1.060448    1.226519
C      1.140877    0.209383   -0.643387
N     -0.897286    1.927645    0.330007
N      0.740122   -0.115188    0.463375
O     -2.206539    1.361293    2.105469
O      0.369979    0.723431   -1.678515
O      2.519797    0.053427   -0.913468
H     -4.910082   -6.128437    0.031592
H      8.439300   -0.551937   -1.698717
H     -3.349887    6.521227   -0.136991
H     -5.885961   -4.053912    0.991280
H     -2.708110   -6.117168   -0.933478
H      8.066856   -0.112852    0.671475
H      6.518947   -0.665414   -3.237144
H     -1.389664    6.307891    1.319936
H     -4.173530    4.523519   -1.403300
H     -4.585614   -1.983095    0.949422
H     -1.404846   -4.028815   -0.972133
H      5.788653    0.213753    1.515702
H      4.245141   -0.343528   -2.418157
H     -0.237783    4.174166    1.546678
H     -3.014713    2.379243   -1.174472
H     -2.801963   -0.749152   -0.175235
H     -1.451502   -1.581760   -0.976896
H     -0.578524   -2.300089    1.358217
H     -1.945424   -1.416681    2.050859
H      3.237144   -0.512021    0.984200
H      3.410218    1.193647    0.536544
H     -0.001982   -0.207380    2.342966
H     -2.762668    2.201110    2.014213
H     -0.540135    0.370725   -1.911678
