26

C      2.431970   -1.264971   -0.220494
C     -2.491246   -0.080477   -0.605645
C     -1.851075    1.078012    0.123077
C     -1.793502   -1.374718   -0.353482
C     -0.422690    1.245456   -0.349122
C     -0.446395   -1.112062    0.293015
C      1.683221    0.031984   -0.039062
C      0.267244   -0.072705   -0.557736
N      2.855478    2.178354   -0.120547
O      2.808466    3.256448   -0.723361
O      2.362158    1.053433   -0.736373
H      1.800205   -1.949712   -0.816304
H      2.602080   -1.754092    0.759764
H      3.437165   -1.117095   -0.671012
H     -3.562929   -0.111405   -0.306289
H     -2.460394    0.167772   -1.696113
H     -2.399723    2.001748   -0.186014
H     -1.928648    0.968788    1.218075
H     -2.346428   -2.061945    0.296381
H     -1.599229   -1.917256   -1.314505
H     -0.483904    1.738356   -1.357201
H      0.127696    1.908343    0.366236
H     -0.607988   -0.673340    1.307103
H      0.151149   -2.036358    0.381273
H      1.639275    0.316332    1.034224
H      0.228042   -0.418891   -1.598403
