56

C     -7.541653   -0.970838    1.826549
C      8.822291   -1.105589    1.832617
C     -6.321723   -1.843934    1.475926
C     -5.147073   -0.989267    1.567069
C     -4.285851   -0.701824    0.611523
C      1.601046   -0.363661   -0.939169
C      2.686285    0.641742   -1.066654
C      0.279059    0.299266   -0.644681
C      2.871364    1.443031    0.174171
C     -0.096485    1.246934   -1.707333
C      3.202974    0.624532    1.384102
C     -4.452175   -1.264920   -0.732066
C     -1.178620    1.163631   -2.451488
C      4.452010   -0.174291    1.240760
C     -4.622260   -0.235167   -1.801703
C     -2.176471    0.084868   -2.313813
C      5.629254    0.710181    0.996647
C     -3.510331    0.735529   -1.964464
C      6.833535   -0.162991    0.881468
O     -3.351471    1.567659   -0.858350
O      7.057505   -0.776345   -0.170054
O      7.680489   -0.273653    1.951038
H     -7.863265   -0.490998    0.889529
H     -7.208032   -0.252779    2.602530
H     -8.317184   -1.645119    2.225916
H      8.529730   -2.107975    2.227754
H      9.089046   -1.194143    0.761223
H      9.683970   -0.691998    2.396633
H     -6.264445   -2.654669    2.255226
H     -6.560589   -2.305271    0.530941
H     -4.955098   -0.527572    2.550483
H     -3.431802   -0.028844    0.836704
H      1.821654   -1.116056   -0.125903
H      1.553846   -0.929336   -1.915974
H      3.622430    0.118405   -1.383494
H      2.411511    1.358364   -1.882409
H      0.357009    0.910726    0.310745
H     -0.488832   -0.455935   -0.410294
H      1.960271    2.047000    0.393309
H      3.713713    2.156539    0.002707
H      0.553443    2.123070   -1.933060
H      3.313635    1.344148    2.246417
H      2.324868   -0.016330    1.670220
H     -5.221638   -2.024520   -0.853763
H     -3.483326   -1.809046   -0.968166
H     -1.380214    1.926366   -3.229716
H      4.382242   -0.872701    0.363153
H      4.635445   -0.799502    2.139392
H     -5.604276    0.290016   -1.742738
H     -4.688639   -0.811833   -2.772798
H     -2.265622   -0.470839   -3.281600
H     -1.971907   -0.654211   -1.548565
H      5.505354    1.288834    0.035787
H      5.780795    1.409884    1.822532
H     -3.740804    1.422663   -2.817736
H     -4.224987    2.000381   -0.687080
