46

C      5.179722   -2.794025   -0.383683
C     -2.323091   -1.909824    3.113973
C     -3.226612    0.801405   -3.460752
C      0.995778    3.784335    1.988068
C     -2.385511   -0.601915    2.753266
C     -1.656691   -2.789300    2.306513
C     -2.692410   -0.459328   -3.522584
C     -2.866079    1.634220   -2.439470
C      0.955052    2.568746    2.635437
C      0.972420    3.812991    0.620303
C     -1.782821   -0.146074    1.577511
C     -1.065180   -2.327428    1.147471
C     -1.802362   -0.835515   -2.537151
C     -1.978064    1.261378   -1.454492
C      0.890833    1.397623    1.869922
C      0.909244    2.656119   -0.107109
C     -1.107756   -1.007412    0.749146
C     -1.417452   -0.013573   -1.489466
C      0.866338    1.415469    0.494660
C     -0.474572   -0.506435   -0.488251
C      0.813107    0.217369   -0.324196
C      2.768261   -1.158995   -0.292589
N      1.731642   -0.727112    0.308701
S      3.237139   -0.694016   -1.934699
S      3.780437   -2.307826    0.628954
H      6.092221   -2.318273    0.057352
H      5.361840   -3.900270   -0.380096
H      5.103975   -2.426448   -1.424044
H     -2.781439   -2.266127    4.011567
H     -3.934432    1.109536   -4.238933
H      1.046350    4.720282    2.558617
H     -2.920290    0.091916    3.405484
H     -1.577779   -3.841051    2.548241
H     -2.954998   -1.153214   -4.321360
H     -3.310932    2.641033   -2.415148
H      0.970484    2.478724    3.709236
H      1.005653    4.784541    0.128971
H     -1.904270    0.907287    1.403749
H     -0.543299   -3.055566    0.529140
H     -1.414773   -1.853515   -2.645912
H     -1.752424    1.970663   -0.686977
H      0.871282    0.439793    2.397207
H      0.894627    2.771296   -1.197080
H     -0.090867   -1.510047   -0.969513
H      1.185018    0.407553   -1.375359
H      2.332682   -1.268990   -2.854628
