56

C      7.449244   -2.039901   -1.706920
C     -6.171384   -3.299757   -1.157679
C      6.266046   -2.350799   -0.767297
C      5.101345   -1.679278   -1.383155
C      4.405104   -0.743974   -0.763720
C     -1.715023    1.847153    1.712920
C     -2.600296    0.643834    1.770488
C     -0.662408    1.593206    0.625326
C     -3.314088    0.338725    0.444488
C      0.237300    2.704975    0.459105
C     -4.130744    1.494141    0.085448
C      4.634811   -0.217087    0.577388
C      1.508319    2.733577    0.592380
C     -4.929816    1.462682   -1.163066
C      3.537486   -0.383016    1.566983
C      2.442500    1.717167    0.930457
C     -5.968777    0.425430   -1.239964
C      2.194473    0.295916    1.126909
C     -5.539502   -0.957226   -1.339579
O      1.793450   -0.404937   -0.031059
O     -4.417584   -1.391177   -1.624483
O     -6.521456   -1.945926   -1.080547
H      8.381907   -2.126190   -1.116154
H      7.377276   -2.751264   -2.544041
H      7.307099   -0.988269   -2.023751
H     -5.172598   -3.502236   -1.570211
H     -6.946027   -3.825422   -1.763400
H     -6.233496   -3.722948   -0.114511
H      6.087814   -3.453845   -0.766447
H      6.566409   -2.022583    0.218779
H      4.800833   -1.981202   -2.416798
H      3.570750   -0.342748   -1.400062
H     -2.190931    2.794305    1.488162
H     -1.237558    1.896413    2.716438
H     -3.364937    0.673870    2.547421
H     -1.942797   -0.242441    2.005206
H     -0.331733    0.573969    0.626534
H     -1.339930    1.613804   -0.308609
H     -2.609142   -0.050057   -0.285401
H     -3.998510   -0.509372    0.747444
H     -0.249004    3.711363    0.165938
H     -4.858313    1.682293    0.958185
H     -3.529141    2.464022    0.111722
H      4.967379    0.878734    0.541332
H      5.521294   -0.702933    1.024819
H      1.968599    3.793733    0.398245
H     -4.248760    1.417668   -2.078474
H     -5.426775    2.489513   -1.253554
H      3.804142    0.148290    2.491984
H      3.320519   -1.424448    1.793834
H      3.180471    2.073658    1.749829
H      3.218154    1.732329    0.052473
H     -6.623311    0.539826   -0.305122
H     -6.633199    0.680975   -2.124150
H      1.516317    0.008917    1.938131
H      1.748199   -1.371453    0.258919
