38

C      5.390572   -0.411084    1.389574
C     -5.254378    0.450898    1.817790
C     -0.142928   -1.154692   -1.682505
C      3.947558   -0.425044    0.856124
C     -5.439357   -0.180909    0.474098
C      3.865100    0.267431   -0.464880
C      2.419181    0.218419   -0.985040
C      1.545040    0.914916   -0.004673
C      0.119774    1.029901   -0.397015
C     -0.601779   -0.237665   -0.606947
C     -3.028532   -0.227040   -0.032885
N     -2.196493    0.824170   -2.109681
N     -1.999280    0.127435   -0.916141
O     -2.791455   -0.855547    1.029258
O     -3.330293    1.291160   -2.343622
O     -4.333206    0.127841   -0.346473
H      5.396559   -0.941694    2.363163
H      5.650587    0.647383    1.549680
H      6.040303   -0.920381    0.661228
H     -5.854779    1.396320    1.832887
H     -5.626567   -0.232084    2.615355
H     -4.203123    0.737862    1.994618
H      0.483767   -0.723802   -2.462571
H     -1.055248   -1.559319   -2.255562
H      0.268351   -2.089096   -1.234573
H      3.558426   -1.458792    0.767018
H      3.365390    0.067445    1.671016
H     -5.549741   -1.284089    0.606809
H     -6.338802    0.219817   -0.028748
H      4.479449   -0.271216   -1.206054
H      4.160539    1.321665   -0.434796
H      2.190572   -0.886242   -0.929537
H      2.384758    0.626654   -1.997451
H      1.553178    0.405340    1.001100
H      1.961093    1.946387    0.220089
H      0.019239    1.734144   -1.272944
H     -0.405213    1.547563    0.480126
H     -0.648263   -0.786284    0.382165
