32

C      4.110652    1.521488    0.696018
C      0.094788   -0.524812   -1.538475
C      2.937755    0.560535    0.511918
C     -3.714836    2.138814    0.010159
C     -3.094226    1.834158    1.193656
C     -3.586847    1.336828   -1.099436
C     -2.331186    0.694317    1.247329
C     -2.822329    0.207066   -1.023148
C     -1.338285   -1.355477    0.280523
C      0.114141   -1.021440   -0.083094
C     -2.185014   -0.130652    0.146686
C      2.167156   -2.290454    0.246558
N      0.962286   -2.095428    0.039549
S      2.627726   -4.075130    0.282777
S      3.491101   -1.145242    0.501315
H      4.626607    1.251518    1.640743
H      3.741383    2.552564    0.762909
H      4.794718    1.368953   -0.172391
H     -0.396925    0.449782   -1.603518
H     -0.480694   -1.309907   -2.097831
H      1.102595   -0.445829   -1.960680
H      2.329952    0.703586    1.442837
H      2.322886    0.835790   -0.344308
H     -4.336630    3.029429   -0.103542
H     -3.220391    2.494395    2.048422
H     -4.082096    1.580498   -2.042676
H     -1.850384    0.480036    2.203977
H     -2.706942   -0.441891   -1.887227
H     -1.406103   -1.679368    1.331876
H     -1.760616   -2.118091   -0.389724
H      0.357885   -0.150995    0.544578
H      3.531871   -4.255043   -0.785782
