35

C      5.398984    0.885764    0.906493
C      0.666623   -2.041709   -1.739813
C      5.144397    1.343993   -0.491283
C     -5.508163    1.006036    0.255695
C     -5.071002   -0.080645    1.001076
C     -4.554522    1.777323   -0.343978
C     -3.740167   -0.394936    1.149338
C     -3.228710    1.496096   -0.218778
C     -0.997581   -0.771326   -0.518364
C     -1.336250    0.141706    0.635488
C      0.483572   -1.124546   -0.530155
C     -2.814475    0.410706    0.526936
C      2.501124    0.077543   -0.527874
N      1.228922    0.076354   -0.635742
S      3.378457   -1.452089   -0.238348
S      3.357472    1.640023   -0.675895
H      6.447197    1.166555    1.187856
H      4.721762    1.441033    1.588094
H      5.238751   -0.203910    0.985639
H     -0.061926   -2.887986   -1.570514
H      1.650890   -2.495191   -1.790863
H      0.329905   -1.545687   -2.660376
H      5.733596    2.229298   -0.793463
H      5.396970    0.517498   -1.211208
H     -6.572144    1.204477    0.174574
H     -5.813696   -0.706498    1.485932
H     -4.897670    2.626934   -0.926578
H     -3.382603   -1.242607    1.729797
H     -2.498659    2.149392   -0.722502
H     -1.239624   -0.318072   -1.479718
H     -1.549876   -1.727854   -0.412264
H     -1.135818   -0.344590    1.595526
H     -0.811207    1.100571    0.544453
H      0.776763   -1.706632    0.358780
H      2.758707   -2.247025    0.735295
