33

C      4.960124   -0.815285    0.116178
C      0.271173    1.678425   -1.315502
C      3.824320   -1.513750    0.823329
C     -4.275178   -2.287037   -0.522903
C     -4.777591   -1.105279   -1.016325
C     -3.102405   -2.237708    0.186981
C     -4.145187    0.090373   -0.817943
C     -2.454319   -1.017308    0.391564
C     -1.183067    1.764973    0.703452
C      0.090688    1.244469    0.131575
C     -2.936011    0.179720   -0.092541
C      2.255031    0.983155    1.121049
N      1.227010    1.716262    0.913413
O     -2.356787    1.409041    0.071467
S      3.627385    1.587308    2.079882
S      2.272755   -0.660534    0.422852
H      4.991405    0.236934    0.416668
H      5.919335   -1.359346    0.326244
H      4.760405   -0.902879   -0.992455
H     -0.217493    0.908186   -1.943357
H     -0.175074    2.685135   -1.487630
H      1.347762    1.686529   -1.528064
H      4.013446   -1.513565    1.921652
H      3.811127   -2.561564    0.464826
H     -4.800750   -3.222357   -0.697187
H     -5.720529   -1.168416   -1.582905
H     -2.686449   -3.149629    0.584681
H     -4.550873    1.003654   -1.209921
H     -1.550528   -1.028247    0.969685
H     -1.134364    2.871341    0.901799
H     -1.219622    1.344302    1.765994
H      0.178922    0.156614    0.133896
H      3.735338    2.996485    2.007357
