38

C     -4.337350    0.618436    2.061366
C      4.933842    0.777056    1.578095
C      0.553560   -1.634839   -2.112025
C     -4.575385   -0.240591    0.836927
C      4.829372   -0.482875    0.734468
C     -3.268074   -0.533010    0.122421
C     -2.588252    0.725211   -0.330673
C     -1.291342    0.336047   -1.053293
C     -0.356825   -0.414011   -0.172745
C      0.904264   -0.784864   -0.915078
C      3.048987    0.458200   -0.688828
N      1.314707    1.356286   -2.087811
N      1.717686    0.344036   -1.240999
O      3.786639    1.433889   -0.954218
O      1.696741    2.544412   -1.957964
O      3.518362   -0.538111    0.154916
H     -3.691793    0.113027    2.778504
H     -5.297046    0.871286    2.545424
H     -3.867041    1.571955    1.769957
H      5.708979    0.708493    2.344313
H      3.918385    0.961484    2.017045
H      5.211366    1.612846    0.902886
H      1.333029   -2.412416   -2.308722
H     -0.424122   -2.150912   -1.963882
H      0.466521   -1.003495   -3.033180
H     -5.271912    0.236656    0.141011
H     -5.012845   -1.212860    1.144501
H      4.926476   -1.390631    1.361948
H      5.570458   -0.469020   -0.100990
H     -2.640862   -1.073445    0.862980
H     -3.464511   -1.197303   -0.739578
H     -2.237521    1.297404    0.574846
H     -3.202351    1.334774   -0.997385
H     -1.639439   -0.328392   -1.897951
H     -0.870772    1.251439   -1.485587
H     -0.826329   -1.397836    0.116519
H     -0.111980    0.173092    0.748289
H      1.536380   -1.461417   -0.226255
