33

C      4.677444    1.097438   -0.279333
C      0.788645   -2.884842    0.206239
C      3.496406    1.296746   -1.189183
C     -2.664331   -0.279059   -1.236178
C     -2.475404    0.095969    1.143367
C     -3.401491    0.900248   -1.326857
C     -3.198334    1.248909    1.041578
C     -1.437271   -1.879197    0.169808
C      0.053574   -1.590038    0.014673
C     -2.225394   -0.643608   -0.004363
C     -3.658149    1.643678   -0.199638
C      1.420517    0.188280    0.632687
N      0.479448   -0.607112    0.943433
O     -4.395386    2.811053   -0.324648
S      1.942858    1.420391    1.815220
S      2.197306    0.067371   -0.944534
H      4.776853    2.015407    0.356273
H      5.639721    0.953362   -0.839369
H      4.509369    0.223766    0.367200
H      1.506870   -3.069197   -0.624414
H      0.107906   -3.761349    0.265318
H      1.354379   -2.866520    1.160840
H      3.873241    1.142901   -2.242011
H      3.113530    2.336862   -1.130489
H     -2.456830   -0.870521   -2.115264
H     -2.100332   -0.237088    2.110439
H     -3.771492    1.225189   -2.297122
H     -3.389228    1.814913    1.944705
H     -1.705331   -2.571594   -0.663256
H     -1.600070   -2.376231    1.130163
H      0.182827   -1.179727   -1.029158
H     -4.598948    3.373613    0.489720
H      2.957095    0.959987    2.654154
