46

C     -4.105946   -3.364359   -0.261406
C      6.444822   -0.197967    1.498906
C     -5.787409    0.417381    0.725123
C     -5.250180    0.125267   -0.504006
C     -5.025908    0.970738    1.724621
C     -3.913281    0.404374   -0.711514
C     -3.692783    1.236235    1.481400
C      4.573170    1.870193    0.248593
C      3.207487    1.198169    0.450448
C     -1.707969    1.231129   -0.013188
C     -0.997149   -1.143018   -0.352289
C     -2.751199   -2.820392   -0.577332
C     -3.112516    0.958822    0.261826
C     -0.735989    0.148227    0.359995
C      6.059357    0.228388   -0.849593
C      1.263407    0.706442   -0.965468
N      5.274539    1.155625   -0.719170
N      0.575230    0.622634    0.059833
O     -1.998940   -3.460995   -1.366971
O      6.463686   -0.079360   -2.186160
O      0.855048    0.302536   -2.225200
O      6.583628   -0.536753    0.153941
O      2.556728    1.253636   -0.829721
O     -2.282697   -1.643102   -0.042046
H     -4.663073   -2.597992    0.301258
H     -4.645419   -3.630781   -1.204440
H     -3.976993   -4.260787    0.389637
H      5.387738   -0.160617    1.779234
H      6.952729   -0.962791    2.142745
H      6.961208    0.772774    1.666699
H     -6.845578    0.185017    0.856923
H     -5.848373   -0.310651   -1.292633
H     -5.483772    1.184860    2.673400
H     -3.529291    0.157666   -1.699544
H     -3.089813    1.663804    2.242783
H      4.376924    2.914191   -0.192823
H      5.049920    2.081784    1.211098
H      3.312955    0.116447    0.656112
H      2.629151    1.666377    1.243504
H     -1.604117    1.420976   -1.104038
H     -1.428303    2.179033    0.504011
H     -0.213570   -1.868822   -0.014830
H     -0.911088   -1.007970   -1.437603
H     -0.773876   -0.041720    1.479094
H      5.814717    0.154884   -2.917477
H      0.032784    0.760469   -2.643733
