37

C     -3.900783    1.379535    0.307882
C      5.427258    0.626778    1.348240
C      0.541064   -1.599038   -1.907088
C     -3.926814   -0.107552   -0.025810
C      4.331287    0.147669    0.406616
C     -3.323391   -0.949140    1.031747
C     -1.942566   -0.713986    1.459642
C     -0.795324   -0.847328    0.541870
C     -0.728137    0.064156   -0.629337
C      0.557241   -0.173284   -1.438137
C      2.382353    1.194011   -0.659692
N      1.732684    0.105558   -0.644107
O      1.961610    2.212449   -1.487815
O      3.497154    1.293203    0.173773
H     -4.008855    1.950053   -0.641824
H     -2.957518    1.686421    0.779894
H     -4.732858    1.674884    0.970224
H      5.095394    0.624230    2.400314
H      6.358183    0.048434    1.218532
H      5.662166    1.683180    1.088986
H      1.140497   -2.258802   -1.251782
H     -0.507715   -1.963465   -2.002523
H      0.978823   -1.698013   -2.943363
H     -5.065646   -0.344040    0.023371
H     -3.675640   -0.355554   -1.052676
H      4.826150   -0.176821   -0.528023
H      3.784996   -0.672977    0.872875
H     -4.038155   -0.886967    1.929284
H     -3.462034   -2.036582    0.703028
H     -1.785430   -1.363691    2.390545
H     -1.910836    0.345809    1.906452
H      0.144797   -0.720674    1.165195
H     -0.716901   -1.932023    0.212037
H     -1.543663   -0.180935   -1.335118
H     -0.838034    1.106859   -0.332917
H      0.471396    0.478270   -2.331969
H      0.967247    2.359374   -1.718324
