46

C     -0.536983    4.220183   -0.654807
C      4.259362    1.963414   -1.308202
C     -5.333169   -2.623360   -0.721056
C     -4.172254   -2.596529   -1.444927
C     -5.262159   -2.283950    0.613991
C     -2.975119   -2.236247   -0.833119
C     -4.090027   -1.923281    1.245332
C      2.937859   -0.436339   -0.260700
C      1.970125   -1.472148    0.369702
C     -1.614428   -1.531719    1.066938
C     -1.270725    0.481970   -0.377109
C     -0.366035    2.752448   -0.293805
C     -2.915398   -1.898959    0.501353
C     -1.298930   -0.050535    1.007563
C      5.113178    0.434503    0.354882
C      0.939971   -0.033006    2.118349
N      4.113267   -0.312732    0.484664
N     -0.185772    0.246650    1.768022
O      0.659337    2.473590    0.323794
O      6.187496    0.331547    1.292157
O      1.605192    0.813455    3.061731
O      5.332635    1.391622   -0.615570
O      1.603230   -1.122163    1.651246
O     -1.252509    1.812531   -0.613324
H     -1.433096    4.328657   -1.304362
H     -0.664916    4.747620    0.314219
H      0.348600    4.540066   -1.208097
H      3.525934    2.478620   -0.647401
H      4.687014    2.835301   -1.914646
H      3.815537    1.293836   -2.041221
H     -6.276914   -2.900707   -1.176133
H     -4.226034   -2.862632   -2.493073
H     -6.162626   -2.294382    1.217873
H     -2.104398   -2.242775   -1.484860
H     -4.065724   -1.662044    2.294740
H      2.326013    0.447990   -0.431902
H      3.220755   -0.842229   -1.281329
H      1.185813   -1.577254   -0.385062
H      2.577089   -2.416293    0.463569
H     -0.846462   -2.086367    0.520313
H     -1.591030   -1.824315    2.152405
H     -2.219068    0.078175   -0.882308
H     -0.473042   -0.034186   -1.007917
H     -2.264824    0.379769    1.528958
H      6.122925   -0.323144    2.046326
H      1.070311    1.535351    3.544409
