42

C     -3.196436   -2.264243    0.155107
C     -2.483931   -0.809617    2.053096
C      6.886219    1.121017    0.771624
C     -3.863414    3.179292    0.316233
C      2.648138   -0.062889    0.053365
C      3.334745    1.106881   -0.583067
C     -1.211978   -0.800907   -1.565652
C     -2.114970   -1.374090    0.697891
C      5.601745    0.696054    0.123571
C     -1.721344   -0.255656   -0.263640
C      0.927793   -1.574599   -0.628472
C     -3.637199    1.100791   -0.990276
N      1.415324   -0.394052   -0.673566
N     -2.665496    0.767874   -0.312515
O      5.541828   -0.465185   -0.334443
O      1.578058   -2.546995    0.118419
O     -4.079255    0.370679   -2.065143
O     -4.337826    2.279100   -0.664662
O      4.514816    1.516192    0.017306
O     -0.246308   -1.839891   -1.336617
H     -2.900967   -2.608336   -0.848315
H     -4.184761   -1.760443    0.169395
H     -3.223662   -3.166881    0.800383
H     -3.049588   -1.619045    2.594460
H     -3.068775    0.114978    1.999797
H     -1.550590   -0.660802    2.663461
H      7.052109    2.198359    0.564623
H      6.818985    0.947680    1.852202
H      7.718178    0.535556    0.326566
H     -4.599440    4.006075    0.367440
H     -3.801606    2.666607    1.294250
H     -2.900333    3.588971   -0.034465
H      2.367923    0.096112    1.093246
H      3.305640   -0.942027   -0.016662
H      2.609691    1.970753   -0.510339
H      3.455639    0.954940   -1.683519
H     -0.767184   -0.002824   -2.177657
H     -2.022840   -1.290510   -2.132092
H     -1.226193   -2.039987    0.883795
H     -0.788425    0.183085    0.235869
H      2.138140   -2.308830    0.947794
H     -4.272448   -0.613188   -1.936411
