45

C     -2.080323   -2.190334    0.850636
C     -3.888635   -1.606384    2.349634
C      7.000424   -2.119837   -1.539920
C     -1.808659    4.834302    0.615442
C      3.078481   -0.185803   -1.516509
C      3.204719   -1.665823   -1.384519
C     -2.979089    0.173185    0.988001
C     -0.981177    0.329952   -0.574749
C     -3.260774   -1.275611    0.982239
C      5.643157   -1.660168   -1.110737
C     -2.327054    0.787601   -0.177015
C      1.317625    0.187601    0.075241
C     -3.274899    3.013916   -0.028181
N      1.737828    0.223960   -1.142769
N     -2.278966    2.232224    0.042778
O      5.593026   -0.874463   -0.132079
O      2.215236   -0.268677    1.039775
O     -4.569095    2.584399   -0.331438
O     -3.059855    4.363507    0.208767
O      4.504234   -2.069828   -1.746775
O      0.025439    0.590380    0.384428
H     -1.122007   -1.744692    1.144777
H     -2.181661   -3.101278    1.502967
H     -2.025952   -2.641312   -0.184309
H     -3.219310   -1.108660    3.099450
H     -4.874912   -1.121928    2.454439
H     -3.888226   -2.684271    2.541127
H      7.170949   -3.099270   -1.021018
H      6.999582   -2.302868   -2.628724
H      7.778181   -1.389225   -1.259712
H     -1.443769    4.417517    1.562156
H     -1.075314    4.725894   -0.217243
H     -1.906406    5.943992    0.774225
H      3.799499    0.356172   -0.905864
H      3.246089    0.126110   -2.573243
H      3.077826   -1.960886   -0.317879
H      2.434412   -2.167032   -2.014352
H     -3.957250    0.724719    1.140444
H     -2.423564    0.408815    1.941567
H     -0.684979    0.982875   -1.456357
H     -0.945628   -0.690439   -0.996897
H     -4.077653   -1.545893    0.261306
H     -2.976057    0.675567   -1.102089
H      3.173835    0.044787    1.006913
H     -4.689328    1.747207   -0.899338
