42

C     -1.668181    0.313852   -1.793480
C     -2.649944   -1.841160   -1.099735
C     -4.234910    2.854198   -0.141358
C      4.611723    2.455894   -0.861833
C      2.789867   -0.813588    0.891446
C      2.013213   -1.442397   -0.264092
C     -1.959908    0.214790    1.394668
C     -1.523777   -0.882303   -0.902523
C     -3.692966    1.511951    0.256622
C     -1.118341   -0.619385    0.495867
C      4.360400    0.987077    1.054812
C      0.293727   -2.559029    1.084091
N      3.520355    0.305064    0.373855
N     -0.624359   -1.763491    1.164852
O     -4.362912    0.539232   -0.145100
O      4.603757    0.658361    2.363297
O      0.387225   -3.637109    2.065326
O      5.004387    2.047125    0.442584
O      1.273996   -2.530365    0.126602
O     -2.576523    1.342332    0.987474
H     -2.680015    0.417898   -2.229452
H     -0.999958    0.257423   -2.712843
H     -1.324433    1.273688   -1.306125
H     -2.251310   -2.850945   -1.304020
H     -3.298871   -1.570663   -1.965044
H     -3.243220   -1.954885   -0.160976
H     -3.535781    3.659638    0.094143
H     -5.177596    2.989684    0.409205
H     -4.446993    2.830958   -1.227802
H      4.732302    1.636198   -1.606830
H      5.269185    3.324169   -1.117151
H      3.544743    2.748511   -0.891761
H      2.130888   -0.592938    1.734854
H      3.529462   -1.573931    1.253835
H      1.554544   -0.651069   -0.839100
H      2.793310   -1.875641   -0.999838
H     -2.746946   -0.430874    1.917402
H     -1.287807    0.475171    2.284198
H     -0.614397   -1.441397   -1.366788
H     -0.166668    0.054262    0.375236
H      4.189228   -0.115163    2.860370
H     -0.416497   -3.751142    2.651769
