45

C     -1.301572   -2.182424   -1.541468
C     -3.548487   -2.393520   -0.602983
C      7.659693   -0.598327    0.288663
C     -3.115436    4.680165   -0.193749
C      2.956373    0.050618    1.547719
C      3.895589   -0.252393    0.389626
C     -2.844187   -0.153104   -1.295598
C     -1.093660    0.515347    0.450405
C     -2.643367   -1.573453   -1.545883
C      6.225325   -0.550535   -0.112203
C     -2.502348    0.516417   -0.034345
C      0.768926   -0.897560    1.181561
C     -4.032499    2.398243   -0.214811
N      1.578045    0.086248    1.109006
N     -2.849926    1.961281   -0.138959
O      5.895521   -0.749445   -1.301918
O      1.228461   -2.094880    1.717290
O     -5.094724    1.506552   -0.202521
O     -4.208875    3.771890   -0.308071
O      5.238505   -0.286123    0.822620
O     -0.524026   -0.728723    0.725548
H     -1.254149   -2.930647   -2.429397
H     -1.046022   -2.843009   -0.697588
H     -0.445294   -1.528731   -1.760596
H     -3.497065   -3.452867   -0.846474
H     -3.139520   -2.220617    0.417850
H     -4.541004   -1.937360   -0.639059
H      8.024027   -1.630010    0.111326
H      8.281436    0.068443   -0.348168
H      7.734373   -0.392644    1.359936
H     -2.404742    4.433769   -1.006178
H     -3.531382    5.696423   -0.364321
H     -2.658143    4.604007    0.805569
H      3.048366   -0.727140    2.344658
H      3.175615    1.046823    1.982495
H      3.582406   -1.163073   -0.133059
H      3.811677    0.619585   -0.301034
H     -2.252926    0.422800   -2.109539
H     -3.905863    0.093583   -1.627772
H     -0.403954    1.024620   -0.294901
H     -1.037069    1.176072    1.368288
H     -3.106261   -1.784298   -2.576142
H     -3.204533    0.134193    0.763539
H      2.194295   -2.409709    1.570346
H     -5.111599    0.673513    0.360795
