66

C     -7.916841    1.414692    0.685401
C      9.202545    0.445020    0.194580
C     -8.684504    0.242627    0.236102
C      9.440608   -0.310485   -1.096906
C     -8.004201   -0.886376   -0.423039
C     -7.279993   -0.651354   -1.687681
C     -6.130331    0.270008   -1.570876
C     -5.111453   -0.341632   -0.598253
C     -3.972622    0.637368   -0.523750
C     -2.931956    0.080678    0.458554
C     -2.394592   -1.222971    0.034762
C     -1.436778   -1.919374    0.912556
C     -0.135950   -1.349465    1.285023
C     -0.027342   -0.130265    2.092448
C      8.342224   -1.342986   -1.296830
C      1.432728    0.182541    2.393683
C      5.761558    1.445135   -1.328138
C      3.662739    1.945354   -0.136212
C      4.903902    1.078422   -0.148713
C      7.009458   -0.643297   -1.363495
C      2.274171    0.416275    1.215283
O      5.580321    1.386118    1.059478
O      5.968442   -1.311364   -1.491001
O      2.537114   -0.461494    0.365638
O      6.960058    0.723188   -1.282141
O      2.847394    1.680575    0.974346
H     -7.992868    2.296978    0.002500
H     -8.453037    1.810240    1.621633
H     -6.909608    1.193226    1.046129
H      8.400998   -0.062699    0.775460
H     10.140488    0.533901    0.777255
H      8.872791    1.476995   -0.066488
H     -9.457192    0.627565   -0.506115
H     -9.233942   -0.175560    1.128528
H     10.406551   -0.861377   -1.073217
H      9.479358    0.372446   -1.966623
H     -7.335225   -1.467379    0.265261
H     -8.826517   -1.648650   -0.655277
H     -6.899335   -1.639835   -2.078864
H     -7.955489   -0.284081   -2.506770
H     -6.316514    1.286254   -1.244050
H     -5.594159    0.242957   -2.563878
H     -5.530769   -0.585561    0.372157
H     -4.829404   -1.304120   -1.087421
H     -4.373447    1.556619   -0.013687
H     -3.526795    0.866758   -1.490881
H     -2.096923    0.826363    0.410093
H     -3.408440    0.016860    1.432829
H     -1.923140   -1.151386   -1.011292
H     -3.231495   -1.969885   -0.172387
H     -2.007575   -2.279175    1.847001
H     -1.282616   -2.952035    0.405027
H      0.432863   -1.226229    0.306727
H      0.405794   -2.169111    1.877268
H     -0.516322   -0.348485    3.093798
H     -0.445020    0.801965    1.735547
H      8.290875   -1.976566   -0.392231
H      8.500668   -1.921404   -2.213424
H      1.425565    1.122641    3.014005
H      1.844910   -0.594888    3.075515
H      5.983860    2.547004   -1.282936
H      5.232568    1.252522   -2.296881
H      3.987300    2.988187   -0.099047
H      3.036934    1.720622   -1.044758
H      4.723828    0.011912   -0.142926
H      5.083785    0.871394    1.761603
