59

C     -6.256360   -3.395390   -1.175163
C      6.340851   -5.258011    0.524014
C      1.703567    2.719948    0.506505
C     -6.020057   -3.240619    0.281372
C      4.954725   -4.886461    0.005761
C     -0.418924    6.975650   -0.292703
C     -1.476130    6.209761    0.126828
C      0.683703    6.437699   -0.913196
C     -1.667233   -0.876910    0.075849
C      1.754617   -1.240824    0.098014
C     -1.384541    4.849955   -0.105497
C      0.740478    5.086155   -1.127208
C     -3.079074   -0.836567    0.693741
C      3.136076   -1.671227    0.607634
C     -1.013714    0.353512    0.571817
C      1.449603    0.158433    0.611045
C     -0.258208    2.824983   -0.944322
C      0.335212    2.192449    0.284808
C     -0.293992    4.290089   -0.723506
C     -3.874010   -2.004019    0.257106
C      3.438969   -3.009823    0.124185
N      0.256023    0.727329    0.226131
O     -3.405071   -2.913977   -0.495483
O      2.667780   -3.686610   -0.587206
O     -5.191663   -2.181770    0.641809
O      4.674662   -3.592578    0.475183
H     -6.162362   -2.452025   -1.765903
H     -7.303327   -3.737623   -1.330141
H     -5.630973   -4.210638   -1.610485
H      6.495053   -4.884700    1.562984
H      6.447631   -6.345417    0.482537
H      7.096911   -4.722987   -0.104223
H      2.188754    2.303182    1.437396
H      1.648706    3.824299    0.759492
H      2.365379    2.690572   -0.374222
H     -7.012517   -3.195719    0.810757
H     -5.556511   -4.188653    0.664886
H      4.924053   -4.870472   -1.094941
H      4.181437   -5.570719    0.398930
H     -0.466325    8.051789   -0.120212
H     -2.358589    6.585244    0.614798
H      1.505494    7.062738   -1.235742
H     -1.210914   -1.834223    0.273039
H     -1.773244   -0.788316   -1.039416
H      1.064907   -2.006655    0.482796
H      1.813713   -1.279850   -1.003509
H     -2.219410    4.221938    0.219404
H      1.577264    4.586171   -1.609113
H     -3.533055    0.093546    0.298794
H     -2.962748   -0.847433    1.779893
H      3.192464   -1.544992    1.701819
H      3.873088   -0.962475    0.124202
H     -1.053277    0.268332    1.719671
H     -1.733296    1.199608    0.299887
H      2.349650    0.756055    0.213018
H      1.669796    0.207179    1.724002
H     -1.284451    2.518569   -1.176663
H      0.387338    2.553804   -1.810610
H     -0.317927    2.488696    1.154088
