28

C      3.042871    1.131140    0.842327
C     -3.654632    0.880354    1.673237
C      1.357995    1.008209   -1.696677
C      2.203048   -0.034200    0.423838
C     -3.130834   -0.277813    0.895128
C      1.009912    0.324076   -0.415403
C     -1.088492   -1.015180   -0.258838
N      0.253259   -0.860454   -0.703460
N      0.835060   -1.907211   -1.448021
O     -1.728525   -2.073862   -0.530224
O      0.268075   -2.227459   -2.662701
O      1.809859   -2.559767   -1.099476
O     -1.772730   -0.065093    0.473261
H      3.387610    1.752248    0.016426
H      3.978836    0.687969    1.297347
H      2.556034    1.785029    1.605879
H     -4.630293    1.205864    1.232890
H     -2.929959    1.713843    1.641902
H     -3.823285    0.512248    2.727723
H      1.710598    0.307264   -2.487416
H      0.410883    1.442574   -2.105185
H      2.091133    1.812095   -1.549333
H      1.853646   -0.552706    1.341031
H      2.883929   -0.755717   -0.097192
H     -3.720425   -0.406096   -0.044947
H     -3.150575   -1.241068    1.434283
H      0.361079    1.017226    0.175916
H     -0.384076   -1.603515   -3.093962
