77

C     10.758538    1.372081   -0.445014
C     -8.334025    2.272827    0.535771
C     -7.875898   -1.071468   -2.435135
C     10.166437    0.195666    0.261045
C     -8.766525    1.047638    1.275878
C     -7.165087   -1.954188   -1.452922
C      8.968849   -0.398498   -0.464804
C      7.851536    0.582289   -0.620280
C      6.707437   -0.024678   -1.359332
C      6.176376   -1.229721   -0.642953
C      5.705824   -0.853879    0.724917
C      4.607164    0.176335    0.681637
C      3.375921   -0.289057   -0.065082
C      2.843341   -1.505294    0.614610
C      1.608252   -2.006099   -0.071538
C      0.529441   -0.953977   -0.053461
C     -7.878143    0.778590    2.462051
C     -5.663251   -1.765981   -1.473263
C      0.145896   -0.541879    1.331834
C     -4.187692    1.519935    1.625979
C     -2.587933    1.527013   -0.351528
C     -3.945761    1.212689    0.208075
C     -6.448876    0.546071    2.065430
C     -0.940438    0.497907    1.225368
C     -5.312939   -0.346900   -1.144219
O     -6.053248   -0.619864    1.801256
O     -1.272002    1.191705    2.212112
O     -5.835500    0.649075   -1.686436
O     -5.534371    1.546277    1.976373
O     -1.589884    0.708745    0.049890
O     -4.337012   -0.073112   -0.161797
H     10.830788    2.272873    0.197826
H     11.813882    1.131038   -0.717481
H     10.269837    1.602301   -1.421149
H     -7.787232    2.988217    1.203623
H     -9.206487    2.813458    0.089329
H     -7.653840    2.088061   -0.314951
H     -8.904751   -1.461914   -2.660853
H     -8.026576   -0.031303   -2.077030
H     -7.368061   -1.005732   -3.423157
H     10.931432   -0.585247    0.400996
H      9.839482    0.555469    1.277592
H     -9.822295    1.094810    1.613494
H     -8.616989    0.182538    0.577234
H     -7.540374   -1.702138   -0.429972
H     -7.436233   -3.015954   -1.701876
H      9.302002   -0.830380   -1.426887
H      8.651475   -1.265774    0.180919
H      8.188973    1.481239   -1.204326
H      7.578437    0.988713    0.380089
H      7.007987   -0.365307   -2.376015
H      5.855667    0.697455   -1.491272
H      6.985481   -1.992293   -0.598389
H      5.330589   -1.607584   -1.284924
H      6.544564   -0.437344    1.311255
H      5.358152   -1.739253    1.311717
H      5.002618    1.130566    0.309147
H      4.272514    0.331032    1.745839
H      3.545660   -0.446386   -1.140329
H      2.641863    0.550698   -0.002601
H      2.684462   -1.257058    1.677626
H      3.606911   -2.325467    0.499780
H      1.203447   -2.922889    0.363052
H      1.887971   -2.154925   -1.153930
H      0.797779   -0.057105   -0.649216
H     -0.374675   -1.378331   -0.536220
H     -8.225595   -0.189544    2.910979
H     -7.953811    1.618287    3.181552
H     -5.291248   -1.955879   -2.506546
H     -5.199800   -2.470373   -0.785819
H     -0.314582   -1.427967    1.860147
H      0.963918   -0.189197    1.951970
H     -3.737980    0.656783    2.270690
H     -3.677932    2.443038    1.986252
H     -2.701489    1.400314   -1.477904
H     -2.359720    2.626149   -0.253141
H     -4.612646    1.972056   -0.371959
