22

C     -1.966719    0.892500   -1.768721
C      1.367547   -0.712154    1.962670
C     -0.037828   -1.860979   -0.514014
C     -0.462249    1.419791    0.762137
C     -1.535054   -0.300877   -1.498847
C      1.607129    0.031645    0.714896
C     -0.363912   -0.563675   -0.672904
C      0.414821    0.512785   -0.052224
H     -1.538543    1.821241   -1.436828
H     -2.872092    0.976699   -2.408264
H      2.045150   -1.588006    2.018596
H      0.341514   -1.090059    2.137422
H      1.703409   -0.076318    2.843893
H     -0.642655   -2.620729   -0.990675
H      0.814740   -2.105114    0.066574
H     -0.172273    1.421398    1.844536
H     -1.518338    1.108704    0.761105
H     -0.408754    2.479225    0.467092
H     -2.101628   -1.148410   -1.928935
H      2.197432   -0.619434    0.005507
H      2.306085    0.879128    0.919419
H      0.822218    1.142638   -0.892970
