22

C     -1.901697    1.991800   -0.398015
C      1.128623   -2.156349   -0.616024
C      1.530898    0.894148   -0.565786
C     -0.840209    0.078653    1.728806
C     -0.589101    1.963357   -0.626402
C      0.540902   -1.507239    0.574153
C      0.245245    0.823479   -0.293991
C     -0.394903   -0.360102    0.321516
H     -2.477857    2.852232   -0.658222
H     -2.410386    1.152542    0.046945
H      0.719984   -3.159712   -0.848101
H      2.227952   -2.281858   -0.547287
H      0.937786   -1.523705   -1.512421
H      1.952653    1.789933   -1.030115
H      2.240353    0.084947   -0.344307
H     -1.882709   -0.233974    1.925949
H     -0.797427    1.173912    1.789759
H     -0.172418   -0.318509    2.491733
H     -0.119818    2.827096   -1.080156
H      1.338110   -1.118827    1.266315
H     -0.018131   -2.254458    1.173151
H     -1.257848   -0.717366   -0.243768
