32

C     -5.896926    0.214370    0.618069
C     -4.394150    0.436226    0.560839
C      2.344044   -1.339950   -0.050971
C      3.691374   -1.458052   -0.305862
C      2.591619    0.951184    0.410731
C     -0.448422    0.500673   -0.606922
C      1.760625   -0.144316    0.311049
C      4.522733   -0.354001   -0.204361
C      3.946531    0.851617    0.158629
C      0.307404   -0.091471    0.569764
C     -2.510053   -0.661618   -0.466055
N     -1.878196    0.460088   -0.389772
O      5.866346   -0.492230   -0.463048
O      4.790181    1.945771    0.255865
O      0.019829    0.630489    1.730641
O     -1.835425   -1.862106   -0.758854
O     -3.876196   -0.621594   -0.246259
H     -6.220365   -0.125550   -0.384086
H     -6.064354   -0.637543    1.331215
H     -6.434857    1.112126    0.961199
H     -4.131447    1.423033    0.171485
H     -4.012259    0.374690    1.596660
H      1.741008   -2.229566   -0.144111
H      4.107792   -2.424423   -0.589100
H      2.155520    1.897652    0.692896
H     -0.120075    0.021009   -1.529575
H     -0.153533    1.581598   -0.657189
H     -0.083591   -1.123130    0.735028
H      6.252252   -1.373187   -0.722317
H      4.478892    2.870825    0.512152
H      0.500137    1.471059    1.805458
H     -1.016437   -1.803672   -1.368609
