56

C     -1.186490   -0.064278   -2.807906
C      0.021654    0.483304   -3.259248
C     -0.148784   -0.692451   -0.798564
C     -6.045704    1.568058    1.356193
C     -4.343348   -0.063263    1.955235
C     -3.979086    0.658381   -1.673470
C      5.489378   -2.527989    0.104442
C     -1.287600   -0.655721   -1.579505
C     -5.404270    0.757346    2.267590
C     -4.505455    0.715996   -0.284513
C      1.143146    0.443031   -2.481250
C     -5.562501    1.524973    0.057054
C     -3.728252   -0.829044   -1.929647
C     -3.887176   -0.081907    0.652044
C      1.062338   -0.159048   -1.217254
C      4.651458   -1.341565    0.500190
C      5.083664   -0.768487    1.836028
C      4.317302    0.552147    1.944149
C      2.865271    0.407509    1.704063
C     -2.557735   -1.232759   -1.101360
C      2.448152   -0.686522    0.787748
O      6.816713   -2.080199   -0.043509
O     -5.900605    0.806802    3.583539
O      2.337422    0.987461   -2.934307
O     -6.164969    2.316629   -0.904624
O     -4.865455   -1.476923   -1.389974
O      6.434219   -0.546308    1.917691
O      4.583132    1.148945    3.191965
O      2.384351    1.629184    1.175998
O     -2.825255   -0.876816    0.248145
O      2.216064   -0.165738   -0.492828
O      3.334369   -1.730545    0.658631
H     -2.050171   -0.018629   -3.440858
H      0.008944    0.938431   -4.260387
H     -0.223787   -1.157705    0.170323
H     -6.880905    2.204331    1.636115
H     -3.867811   -0.681417    2.690427
H     -4.672996    1.087966   -2.414550
H     -3.021718    1.238415   -1.651313
H      5.480509   -3.318486    0.861926
H      5.137723   -2.918653   -0.849336
H     -3.700225   -1.098230   -2.979701
H      4.693979   -0.583989   -0.286687
H      4.697271   -1.449896    2.624889
H      4.791311    1.222486    1.188152
H      2.353374    0.305241    2.688963
H     -2.415463   -2.355480   -1.173970
H      1.500198   -1.120057    1.157617
H      6.836054   -1.468273   -0.836102
H     -5.472783    0.231048    4.313856
H      2.374585    1.414136   -3.841342
H     -6.932345    2.925128   -0.730410
H     -5.548437   -1.532019   -2.098294
H      6.674940   -0.500100    2.883712
H      4.827936    2.108335    3.091099
H      2.613867    1.696599    0.213125
