54

C      2.244109   -0.530177    4.099984
C      4.226150    1.138082   -2.179346
C     -2.989774   -1.240587    3.693295
C     -1.838321   -3.033199   -3.292752
C     -1.220237    4.259209   -1.346735
C      4.549194    0.571439   -0.962079
C      2.914558    1.198425   -2.579022
C     -2.106792   -2.132265    3.143357
C     -3.141064   -0.002597    3.129886
C     -2.766942   -2.276495   -2.651066
C     -0.499900   -2.953743   -3.004726
C     -0.339137    3.972942   -0.338338
C     -1.897773    3.259437   -1.971379
C      3.551506    0.080779   -0.177969
C      1.912415    0.700335   -1.780936
C     -1.387112   -1.748386    2.022061
C     -2.412417    0.378322    1.999360
C     -2.379180   -1.385622   -1.668114
C     -0.136389   -2.051478   -2.013688
C     -0.134653    2.653946    0.050572
C     -1.685362    1.929622   -1.572457
C      1.929459   -0.942262    2.704030
C      2.211620    0.140720   -0.582617
C     -1.530508   -0.508649    1.447889
C     -1.051483   -1.278563   -1.353345
C     -0.805297    1.627188   -0.563093
C      1.248675   -0.437648    0.385071
O      2.003985   -2.150963    2.378261
O      1.550208   -0.050708    1.718896
Si    -0.528380   -0.091867   -0.041641
H      3.367326   -0.524049    4.171889
H      1.902142   -1.260927    4.844246
H      1.887799    0.478384    4.319045
H      5.014843    1.526504   -2.800166
H     -3.566387   -1.519375    4.574142
H     -2.125166   -3.743832   -4.073468
H     -1.383579    5.292536   -1.654849
H      5.585527    0.513267   -0.625066
H      2.668747    1.633845   -3.514285
H     -1.973709   -3.104897    3.568421
H     -3.824256    0.706077    3.544163
H     -3.815582   -2.371289   -2.910303
H      0.247044   -3.563430   -3.521930
H      0.185291    4.787851    0.140121
H     -2.590860    3.498656   -2.766306
H      3.841135   -0.359675    0.776261
H      0.894463    0.742059   -2.088670
H     -0.701445   -2.473573    1.614724
H     -2.572593    1.358821    1.602901
H     -3.162974   -0.795404   -1.173356
H      0.935911   -2.012487   -1.804784
H      0.556731    2.431850    0.841546
H     -2.246458    1.202712   -2.104130
H      1.384891   -1.538862    0.346495
