61

C     -0.048901    4.842751    0.905346
C     -1.458377    0.573280    4.653523
C     -5.223399    0.396630   -1.766237
C      0.106105   -4.553003   -0.974917
C      0.695997    3.861254    1.557525
C     -0.694732    4.518157   -0.246378
C     -2.352998    1.061160    3.727252
C     -0.408685   -0.194136    4.193250
C     -4.102495    0.801999   -2.443607
C     -5.091967   -0.213307   -0.517051
C     -0.267180   -4.266691    0.320777
C      0.131450   -3.554572   -1.933015
C      0.765879    2.581224    1.026512
C     -0.610005    3.240779   -0.753710
C     -2.213739    0.798169    2.383072
C     -0.277543   -0.453335    2.836362
C     -2.861519    0.589698   -1.856999
C     -3.840635   -0.412594    0.044562
C     -0.620214   -2.982494    0.680247
C     -0.219406   -2.261758   -1.590862
C      4.481767   -0.772833   -2.612173
C      4.188199   -0.655843   -0.277313
C      5.770534   -1.261658   -2.446023
C      5.476514   -1.144335   -0.081072
C      3.673295   -0.463498   -1.542659
C      0.113855    2.239728   -0.143263
C      6.270906   -1.448489   -1.165499
C     -1.173787    0.035387    1.908788
C     -2.708755   -0.010607   -0.624550
C     -0.587015   -2.009135   -0.288148
C      2.316784    0.049060   -1.709006
C      0.206530    0.841883   -0.695129
Br     8.049041   -2.121592   -0.925277
O      1.885530    0.212173   -2.867870
O      1.502792    0.355755   -0.668185
Si    -1.043785   -0.274840    0.117875
H     -0.125996    5.849667    1.289352
H     -1.578226    0.788279    5.716681
H     -6.205072    0.556032   -2.211896
H      0.379649   -5.548265   -1.251685
H      1.192184    4.138368    2.456786
H     -1.291015    5.250895   -0.794613
H     -3.182914    1.669699    4.110377
H      0.300364   -0.584190    4.898793
H     -4.164195    1.286131   -3.429984
H     -5.976521   -0.523540   -0.001933
H     -0.297228   -5.032111    1.098087
H      0.416850   -3.735717   -2.956519
H      1.338718    1.842772    1.535502
H     -1.136910    3.022040   -1.670166
H     -2.962383    1.224730    1.729762
H      0.540080   -1.045421    2.485683
H     -2.006455    0.927765   -2.435304
H     -3.805587   -0.900092    1.029524
H     -0.921574   -2.756649    1.716725
H     -0.206633   -1.458250   -2.346750
H      4.083914   -0.624795   -3.612360
H      3.558472   -0.415043    0.556221
H      6.417374   -1.508417   -3.278032
H      5.896218   -1.301293    0.897296
H     -0.093154    0.933040   -1.757695
