54

C      3.480311   -2.949928    1.124047
C      2.909119    2.772955   -2.765728
C     -2.417926    0.607650   -3.859924
C     -2.297567    2.894354    3.227477
C     -1.309997   -4.325824    1.776756
C      2.733886    3.291090   -1.510910
C      2.629993    1.465118   -3.072472
C     -1.536109   -0.440981   -3.664839
C     -2.666206    1.450839   -2.793441
C     -1.580714    3.359945    2.160429
C     -2.455744    1.543574    3.431177
C     -1.808842   -3.899097    0.566198
C     -0.540036   -3.479608    2.526561
C      2.253233    2.429059   -0.537012
C      2.149616    0.635332   -2.064571
C     -0.924917   -0.637075   -2.443473
C     -2.042957    1.234788   -1.580807
C     -1.009228    2.471653    1.277725
C     -1.880007    0.672916    2.542520
C     -1.547031   -2.615895    0.081105
C     -0.292230   -2.212980    2.028703
C      2.828744   -1.628312    1.194288
C      1.958512    1.112157   -0.791962
C     -1.163114    0.195394   -1.371999
C     -1.159474    1.117996    1.469411
C     -0.776120   -1.759386    0.824812
C      1.453071    0.205877    0.251917
O      2.975635   -0.967689    2.272590
O      2.084564   -1.065950    0.193473
Si    -0.375179   -0.032611    0.259773
H      2.997405   -3.651885    0.427489
H      3.376516   -3.417758    2.142589
H      4.580918   -2.877057    0.960184
H      3.288150    3.418999   -3.570362
H     -2.905712    0.766623   -4.829619
H     -2.734479    3.627184    3.903676
H     -1.504774   -5.323301    2.169442
H      2.971052    4.330043   -1.328201
H      2.775789    1.069203   -4.078500
H     -1.344891   -1.104845   -4.515791
H     -3.351448    2.281995   -2.911780
H     -1.450358    4.420554    1.991209
H     -3.014620    1.201341    4.263607
H     -2.420926   -4.569071   -0.031878
H     -0.119870   -3.761707    3.488742
H      2.117695    2.845389    0.450339
H      1.948692   -0.382483   -2.357009
H     -0.243762   -1.471011   -2.345892
H     -2.274646    1.925262   -0.782221
H     -0.440309    2.881874    0.431896
H     -2.015858   -0.396041    2.719779
H     -1.943670   -2.287339   -0.871419
H      0.316647   -1.559042    2.635138
H      1.719173    0.587716    1.286761
