81

C      2.564618   -1.235759   -1.149520
C     -6.380304   -1.967205   -1.603290
C     -0.585390    4.788695   -0.552951
C      1.690556   -4.744027    1.488031
C      7.315067    3.789913    2.521907
C     -5.873480   -1.066805   -2.681259
C     -6.201055   -1.320553   -0.259449
C     -0.581941    4.166010   -1.932379
C     -0.859328    3.792404    0.528085
C      0.519387   -5.249256    0.703429
C      1.355714   -3.470850    2.226916
C      6.590612    3.405930    3.600004
C      6.928407    3.473072    1.239650
C     -4.473529   -0.560222   -2.446351
C     -4.768761   -0.918755   -0.036492
C     -1.254493    2.803944   -1.768453
C     -0.140651    2.486384    0.381994
C      0.086392   -4.253522   -0.365932
C      0.161643   -2.841618    1.557056
C      5.420285    2.669834    3.411890
C      5.749759    2.731689    1.078188
C     -1.988579    0.336304   -1.149793
C     -1.613684   -1.956375   -0.725802
C      1.624704   -0.092116   -0.644197
C     -3.922974   -1.246517   -1.229096
C     -0.186901    1.946919   -1.070613
C      0.529660   -2.851700   -0.006356
C      5.005077    2.334298    2.144902
C     -2.483058   -0.937810   -1.024090
C     -0.642345    0.588608   -0.986331
C     -0.221359   -1.742994   -0.546429
C      0.252823   -0.476384   -0.686183
C      3.812710    1.537761    2.007526
C      3.236132    1.153209    0.766187
O      3.258277    1.170661    3.087903
O      3.622174    1.611023   -0.341211
O      2.182035    0.229980    0.633967
H      3.229152   -1.596808   -0.367192
H      3.266852   -0.769215   -1.964533
H      1.994377   -1.925985   -1.768898
H     -7.490740   -2.082013   -1.787518
H     -5.967780   -2.988958   -1.602865
H      0.384559    5.283593   -0.392839
H     -1.407400    5.543716   -0.520879
H      2.611233   -4.684086    0.885763
H      1.891480   -5.515313    2.290520
H      8.242378    4.369597    2.652126
H     -5.889430   -1.654660   -3.644250
H     -6.571396   -0.204729   -2.758271
H     -6.521631   -2.031932    0.541191
H     -6.914444   -0.460864   -0.210318
H      0.465303    3.994648   -2.252566
H     -1.101162    4.740122   -2.697766
H     -0.445008    4.262648    1.474673
H     -1.934209    3.617244    0.745127
H      0.848657   -6.166350    0.176210
H     -0.325123   -5.566383    1.339052
H      1.130434   -3.643623    3.307358
H      2.246922   -2.805661    2.110824
H      6.917088    3.661430    4.619525
H      7.495535    3.780082    0.405585
H     -4.531121    0.544631   -2.228353
H     -3.877528   -0.752681   -3.356596
H     -4.748117    0.175232    0.148213
H     -4.360038   -1.490015    0.829023
H     -1.501492    2.318815   -2.704081
H     -2.132399    2.965061   -1.135669
H      0.904757    2.675116    0.699981
H     -0.576673    1.768272    1.094794
H      0.672286   -4.564722   -1.292946
H     -0.935265   -4.434858   -0.581095
H     -0.704117   -3.467719    1.728515
H      0.003749   -1.798689    1.857686
H      4.894937    2.405185    4.305496
H      5.507285    2.514562    0.045969
H     -2.725962    1.121150   -1.388166
H     -2.052244   -2.923315   -0.631340
H      1.988072    0.715935   -1.328359
H     -4.061509   -2.361362   -1.391515
H      0.755673    2.204007   -1.509799
H      1.595857   -2.855276    0.086729
