86

C      5.391945    2.343026   -0.119430
C      1.493032   -0.893351   -2.564140
C      8.535842    0.559000    3.507411
C     -6.984456   -1.510832   -0.104899
C     -1.663061    4.159402    1.053370
C     -0.538779   -4.975046    0.884150
C      8.567925    1.614478    2.647218
C      7.459820   -0.289947    3.513144
C     -6.676613   -0.811691   -1.431430
C     -5.706516   -1.877920    0.621938
C     -2.086058    4.401881   -0.369104
C     -0.146203    4.011876    1.068843
C     -0.132701   -4.889695   -0.563371
C     -1.122906   -3.578887    1.184739
C      7.476591    1.796063    1.775148
C      6.409549   -0.091834    2.655324
C     -5.183109   -0.829293   -1.697235
C     -4.840094   -0.651923    0.756130
C     -1.301505    3.688117   -1.379103
C      0.252658    2.744104    0.380938
C     -0.816545   -3.691883   -1.256197
C     -0.125238   -2.581862    0.753526
C      4.245252    0.426499    0.696097
C     -2.410421    1.178647   -0.830462
C     -2.302392   -1.185151   -0.849799
C      5.307352    1.166601    0.834136
C      1.109696    0.175368   -1.448085
C      6.394372    0.971148    1.748183
C     -4.510575   -0.054844   -0.584298
C     -0.388807    2.576968   -1.005090
C     -0.180807   -2.414977   -0.819757
C     -3.039313   -0.036371   -0.752582
C     -1.043116    1.228775   -1.013686
C     -0.921227   -1.176061   -1.030082
C      3.223507    0.683993   -0.284782
C     -0.294369    0.047698   -1.124028
O      3.274013    1.610355   -1.111245
O      2.059984   -0.116200   -0.403100
H      6.297283    2.939977    0.008943
H      5.390254    1.955935   -1.129936
H      4.483643    2.959844    0.117571
H      0.593111   -1.394199   -2.924507
H      2.362080   -1.459172   -2.255195
H      1.854569   -0.317210   -3.473968
H      9.357392    0.392914    4.185246
H     -7.553297   -2.436792   -0.282274
H     -7.559715   -0.835911    0.555669
H     -1.892027    4.999470    1.741632
H     -2.101535    3.232148    1.466871
H      0.307734   -5.084431    1.584301
H     -1.352417   -5.720792    1.055871
H      9.408936    2.292090    2.637313
H      7.519765   -1.116232    4.234271
H     -7.262484   -1.297609   -2.251574
H     -6.990818    0.244072   -1.349209
H     -6.021887   -2.160514    1.655226
H     -5.147016   -2.677173    0.116515
H     -1.909389    5.527569   -0.510723
H     -3.202385    4.356900   -0.484358
H      0.375258    4.902561    0.724719
H      0.124549    3.883567    2.162324
H      0.947633   -4.776716   -0.653803
H     -0.493477   -5.788771   -1.094040
H     -1.348029   -3.517046    2.295635
H     -2.096202   -3.611241    0.680036
H      7.610460    2.668107    1.145826
H      5.571284   -0.786640    2.678305
H     -4.804797   -1.876454   -1.761805
H     -5.004247   -0.333040   -2.649586
H     -5.372278    0.091786    1.419354
H     -3.933634   -0.945651    1.331438
H     -2.016119    3.310003   -2.150527
H     -0.664362    4.446144   -1.916432
H     -0.035522    1.878242    1.031787
H      1.354911    2.736909    0.348911
H     -1.896643   -3.759239   -1.268593
H     -0.515203   -3.916014   -2.340255
H      0.891548   -2.936720    1.016314
H     -0.208966   -1.576923    1.196244
H      4.138114   -0.428342    1.365362
H     -2.983564    2.101064   -0.760185
H     -2.887010   -2.103091   -0.805702
H      1.455624    1.076993   -1.929761
H     -4.940769    0.975170   -0.591219
H      0.490229    2.634432   -1.700700
H      0.872687   -2.476206   -1.052969
