47

C     -6.245956   -0.256642   -1.485850
C      3.147466   -1.875543    0.737862
C     -3.203341   -1.866692    2.053552
C     -2.009331    2.179648   -0.575420
C     -1.272079    1.559458    2.333434
C      6.803319    0.567221   -2.169178
C      5.689717    1.351163   -2.172236
C      6.726330   -0.657348   -1.508026
C      4.532643    0.909104   -1.523545
C      5.579031   -1.110056   -0.860271
C     -4.614864   -1.044116    0.245947
C     -4.131296    0.911158   -0.953484
C      2.126550    0.069188   -0.160585
C     -4.973567   -0.141459   -0.726867
C      3.225768   -0.676827   -0.156887
C     -3.459127   -0.895496    0.966155
C     -2.937411    1.065868   -0.212171
C     -1.331382    0.242917    1.512387
C      4.459673   -0.307677   -0.868790
C      0.967793   -0.309131    0.671501
C     -2.572284    0.186255    0.750425
O      0.923636   -1.297990    1.419922
O     -0.170706    0.463529    0.671250
H     -6.525098    0.745120   -1.897765
H     -6.114780   -0.952010   -2.315876
H     -7.071943   -0.660978   -0.806007
H      2.398109   -2.608851    0.358700
H      3.048422   -1.599985    1.793204
H      4.105815   -2.414250    0.662100
H     -2.459774   -2.579650    1.772389
H     -4.157964   -2.412647    2.344743
H     -2.895744   -1.250485    2.940134
H     -2.000557    3.050478    0.098196
H     -2.412214    2.612723   -1.551700
H     -1.004221    1.805651   -0.898424
H     -0.619323    1.273321    3.229731
H     -0.764146    2.378445    1.842129
H     -2.289110    1.872904    2.634461
H      7.740505    0.875985   -2.660807
H      5.729609    2.322953   -2.682444
H      7.606192   -1.243804   -1.493041
H      3.693276    1.622270   -1.579183
H      5.560177   -2.044493   -0.358589
H     -5.327515   -1.884374    0.413674
H     -4.361414    1.667544   -1.688945
H      2.058083    0.939504   -0.771117
H     -1.196969   -0.581904    2.207203
