25

C     -0.499296    2.346885    0.170527
C      4.600416   -0.449721    0.332372
C     -3.308420   -1.823410   -0.056635
C     -3.535244   -0.473072    0.027258
C     -1.996631   -2.242571   -0.188684
C     -2.493941    0.422197   -0.018889
C     -0.948121   -1.349661   -0.235549
C     -0.029170    0.974116   -0.202387
C     -1.175848    0.029561   -0.150189
C      2.299690    0.246741    0.129642
O      2.476794    0.414758   -1.109345
O      3.342407   -0.194826    0.934342
O      1.031940    0.523862    0.621623
H     -1.173904    2.719325   -0.624977
H      0.328435    3.076395    0.271860
H     -1.120569    2.303891    1.105380
H      4.637393   -1.383939   -0.230971
H      5.345455   -0.466296    1.180404
H      4.889020    0.440695   -0.271814
H     -4.128930   -2.554678   -0.021509
H     -4.542131   -0.113595    0.130421
H     -1.812576   -3.319452   -0.255868
H     -2.664431    1.508988    0.047158
H      0.090834   -1.674914   -0.339817
H      0.386831    1.038721   -1.244354
