38

C     -2.237565    0.171587   -2.100312
C      3.245926   -2.225845   -0.551874
C     -5.962243   -0.017055    1.561433
C      5.033000    2.083982    1.099722
C     -4.779481   -0.345272    2.183674
C     -5.948065    0.272874    0.215682
C      4.249228    1.228468    1.843004
C      4.975931    1.931615   -0.274975
C     -3.601777   -0.373275    1.427288
C     -4.758841    0.240132   -0.527580
C      3.453166    0.274916    1.255595
C      4.185238    0.983406   -0.875686
C     -1.140424   -0.451121   -0.074580
C     -2.289768   -0.136742   -0.649948
C      2.535140   -0.908116   -0.743976
C     -3.560507   -0.085447    0.070845
C      3.410093    0.138947   -0.114614
C      0.140281   -0.505645   -0.787351
O      0.293881   -0.265396   -2.002982
O      1.299223   -0.847022   -0.094988
H     -3.209301    0.427408   -2.520061
H     -1.572479    1.044297   -2.301492
H     -1.860260   -0.715653   -2.676689
H      3.095713   -2.526261    0.508294
H      4.340898   -2.065942   -0.710255
H      2.873692   -3.019510   -1.220653
H     -6.908523    0.023971    2.083891
H      5.665533    2.840270    1.544515
H     -4.757273   -0.578517    3.241039
H     -6.853652    0.528494   -0.280614
H      4.245018    1.292569    2.936751
H      5.581662    2.590496   -0.885734
H     -2.700593   -0.633055    1.946407
H     -4.794667    0.475497   -1.585296
H      2.840944   -0.390273    1.884841
H      4.153129    0.878118   -1.959536
H     -1.112490   -0.683649    0.968398
H      2.430215   -0.653252   -1.832183
