33

C     -2.227313    1.319054   -2.301588
C     -4.644427    0.081005    1.851420
C      5.644981   -1.345917    0.301910
C     -4.955192    0.677664    0.660551
C     -3.377520   -0.427835    2.059709
C      5.431453   -0.107166    0.843629
C      4.618991   -1.988332   -0.350626
C     -4.011439    0.775295   -0.335737
C     -2.447636   -0.318903    1.047342
C      4.187578    0.449164    0.711639
C      3.363770   -1.419572   -0.480190
C     -1.709269    0.385797   -1.247330
C     -2.734306    0.283541   -0.176865
C      3.123191   -0.172955    0.056570
C      1.843408    0.508551   -0.025351
C      0.653848    0.012408   -0.659135
O      1.779972    1.664018    0.524320
O      0.506095   -1.078406   -1.245912
O     -0.519365    0.794987   -0.656343
H     -3.069347    0.836286   -2.837366
H     -2.624686    2.252417   -1.854239
H     -1.428605    1.651763   -3.005374
H     -5.366836   -0.013727    2.662391
H      6.629659   -1.812529    0.393452
H     -5.929242    1.069278    0.499443
H     -3.153620   -0.897948    3.014772
H      6.249412    0.381905    1.352461
H      4.815498   -2.960540   -0.766322
H     -4.297659    1.259141   -1.275867
H     -1.447797   -0.703137    1.169853
H      4.057509    1.434971    1.155771
H      2.586630   -1.953837   -0.997987
H     -1.547739   -0.636440   -1.699172
