22

C     -1.306626   -1.949402    0.114090
C      3.102638    0.613552    0.180093
C      2.778186   -0.716062    0.324883
C      2.126168    1.532337   -0.130366
C      1.474043   -1.101150    0.154750
C      0.818706    1.108652   -0.295229
C     -0.926352   -0.594094   -0.342813
C      0.468425   -0.225250   -0.154312
N     -2.600977    1.183179   -0.312077
O     -3.101923    2.290467    0.327266
O     -2.905904    0.887727   -1.486427
O     -1.727330    0.362615    0.363946
H     -2.332812   -2.172004   -0.303656
H     -1.436180   -1.952117    1.223420
H     -0.664987   -2.762430   -0.210014
H      4.132186    0.906194    0.316119
H      3.544772   -1.434922    0.568234
H      2.426149    2.568796   -0.234988
H      1.216665   -2.135608    0.266535
H      0.058217    1.835167   -0.538690
H     -1.168571   -0.505579   -1.431380
H     -3.974495    2.259930    0.829743
