22

C      1.043866   -1.841552   -0.411476
C     -3.126344    0.773560    0.120529
C     -2.772462   -0.441744   -0.422212
C     -2.125839    1.609523    0.522120
C     -1.441340   -0.796015   -0.552533
C     -0.810222    1.259125    0.393203
C      0.997012   -0.314347   -0.278911
C     -0.437800    0.047094   -0.147634
N      2.856767    0.715476    0.951269
O      3.614790    1.109995   -0.119237
O      3.261789    1.069209    2.082659
O      1.724384   -0.013374    0.887905
H      0.451116   -2.232739    0.441278
H      0.719072   -2.184247   -1.390525
H      2.107556   -2.117735   -0.199456
H     -4.151405    1.090898    0.241042
H     -3.584291   -1.087163   -0.733154
H     -2.396441    2.574646    0.953368
H     -1.232673   -1.753971   -0.981964
H     -0.022142    1.924782    0.712764
H      1.423803    0.099835   -1.194693
H      3.900804    0.508744   -0.874343
