36

C      1.103774   -1.622164   -2.274995
C     -4.268931    2.071783    0.090392
C     -3.131369    2.262572   -0.654829
C      4.007244    1.093728   -1.628434
C      4.636306    1.314758   -0.423413
C      2.910785    0.267514   -1.718185
C     -4.342544    0.941579    0.866617
C     -2.109892    1.386000   -0.641890
C      4.126411    0.680667    0.667235
C      1.176745   -1.207463   -0.768324
C      2.376466   -0.391097   -0.598548
C     -3.312723   -0.016063    0.929066
C     -2.214853    0.225482    0.171053
C      3.006149   -0.168609    0.596072
C     -3.496109   -1.117955    1.837708
C     -1.121932   -0.733709    0.102456
N      2.574045   -0.812641    1.776662
O     -2.735754   -2.030344    2.166262
O     -4.760914   -1.221772    2.501232
O     -1.155522   -1.830624    0.645852
O      3.540347   -1.152283    2.701818
O      1.403384   -1.059159    1.994558
O      0.013524   -0.399230   -0.603734
H      0.455559   -2.521897   -2.306203
H      0.656699   -0.793187   -2.848593
H      2.107089   -1.847375   -2.667108
H     -5.086733    2.800756    0.061836
H     -3.036234    3.155879   -1.288660
H      4.439068    1.613479   -2.488257
H      5.512675    1.969960   -0.343583
H      2.424633    0.119478   -2.675890
H     -5.252561    0.796138    1.460825
H     -1.213565    1.533064   -1.223158
H      4.571331    0.811928    1.659670
H      1.159971   -2.142321   -0.230745
H     -4.962571   -1.976873    3.141140
