43

C     -3.619298   -2.563488   -0.760886
C     -2.695817   -2.031498    1.399394
C     -3.123221    3.506000    0.012227
C     -3.026950    2.744525    1.152579
C     -2.447722    3.085900   -1.133853
C      5.257369    0.380795   -1.718153
C      4.080179    0.609957   -2.370603
C     -2.275576    1.582326    1.169004
C     -1.710162    1.927629   -1.085530
C      5.287407   -0.041204   -0.417407
C      2.914939    0.407094   -1.690429
C     -1.549682   -1.217084   -0.668904
C     -2.861977   -1.460443    0.002054
C     -1.598870    1.144243    0.052454
C      4.083600   -0.251546    0.287544
C      2.907535   -0.028142   -0.346995
C     -0.796203   -0.107941    0.077173
C      4.186482   -0.699493    1.654162
C      1.623720   -0.209762    0.278816
O      3.296361   -0.958181    2.472877
O      5.490328   -0.896859    2.216979
O      1.377817   -0.576483    1.430685
O      0.467639    0.055283   -0.490266
H     -4.413010   -2.917255   -0.059064
H     -2.877527   -3.356617   -0.974908
H     -4.016181   -2.140281   -1.681269
H     -3.730569   -2.283527    1.751959
H     -2.130980   -2.986922    1.340108
H     -2.218030   -1.375012    2.113427
H     -3.701322    4.405667   -0.010628
H     -3.540392    3.057899    2.034769
H     -2.509179    3.668427   -2.040799
H      6.190125    0.538465   -2.247988
H      4.041519    0.948492   -3.413467
H     -2.206864    0.999296    2.065952
H     -1.195590    1.619040   -1.979886
H      6.214516   -0.228144    0.116336
H      1.959804    0.585700   -2.197199
H     -0.872360   -2.108843   -0.589743
H     -1.641386   -0.997283   -1.745315
H     -3.494106   -0.567451    0.031191
H     -0.713898   -0.446268    1.124898
H      5.587531   -0.817012    3.219807
