37

C     -2.924392   -2.067857    0.469668
C     -0.565103   -2.664895    0.675624
C     -3.341647    3.250551   -0.141769
C      5.410543    0.309915    0.329574
C     -3.793325    2.196119    0.607798
C     -2.158493    3.070603   -0.823778
C      4.412844    0.570308    1.266472
C      5.054074   -0.184181   -0.904119
C     -3.082404    0.991695    0.675509
C     -1.443339    1.897810   -0.772791
C      3.083253    0.342339    0.979053
C      3.729801   -0.397770   -1.154410
C     -1.584975   -1.530343    0.824864
C     -1.904954    0.818166   -0.006121
C      2.711025   -0.156585   -0.263719
C     -1.082975   -0.407182   -0.015105
C      1.317748   -0.406634   -0.594630
O      1.029294   -0.857480   -1.729380
O      0.279903   -0.170524    0.287368
H     -3.359244   -1.507072   -0.393619
H     -3.630987   -2.198710    1.310368
H     -2.792042   -3.109496    0.053044
H     -0.422738   -2.796339   -0.417027
H     -0.997657   -3.622533    1.067152
H      0.394773   -2.416650    1.134144
H     -3.912373    4.168972   -0.175014
H      6.453389    0.474530    0.517115
H     -4.718673    2.283454    1.164471
H     -1.811662    3.926643   -1.419347
H      4.725548    0.961052    2.234638
H      5.793832   -0.392034   -1.638269
H     -3.452271    0.172559    1.280686
H     -0.508758    1.790416   -1.326639
H      2.305458    0.548383    1.717581
H      3.435289   -0.789205   -2.128819
H     -1.574216   -1.289972    1.913169
H     -1.074545   -0.808056   -1.088350
