37

C     -2.686718   -2.265164   -0.198752
C     -0.394393   -2.678903   -0.957520
C     -3.800789    2.562895    0.857624
C      5.328251    1.069789   -0.711481
C     -3.646022    1.541178    1.785145
C     -3.015672    2.567809   -0.274577
C      5.187529    0.404508    0.475088
C      4.232072    1.310358   -1.515036
C     -2.723897    0.574557    1.549487
C     -2.086575    1.566822   -0.481572
C      3.931348   -0.013973    0.840265
C      2.964803    0.873459   -1.119362
C     -1.415606   -1.620034   -0.710229
C     -1.906806    0.528794    0.428426
C      2.806825    0.201641    0.073684
C     -0.931720   -0.546446    0.238962
C      1.500167   -0.269705    0.520301
O      1.418769   -0.877052    1.618932
O      0.338896   -0.091516   -0.188986
H     -2.877331   -3.244311   -0.634457
H     -3.574316   -1.607796   -0.313464
H     -2.509504   -2.440934    0.903127
H      0.599429   -2.309157   -0.617700
H     -0.599150   -3.614311   -0.360375
H     -0.376682   -3.013448   -2.024590
H     -4.531754    3.339127    1.033174
H      6.325908    1.404309   -1.005517
H     -4.267571    1.530790    2.688762
H     -3.149652    3.377063   -0.992861
H      6.074004    0.230441    1.086972
H      4.376027    1.843308   -2.455404
H     -2.599796   -0.226591    2.272846
H     -1.477451    1.569467   -1.358677
H      3.833466   -0.539483    1.781883
H      2.111420    1.072915   -1.767470
H     -1.666775   -1.153838   -1.696710
H     -0.790736   -1.056566    1.230062
