35

C      0.453290   -2.912710   -0.351643
C      5.614077    2.150799   -0.462357
C     -5.569114    0.845865    1.450851
C     -4.486895    0.361220    2.170242
C     -5.476380    0.877645    0.074709
C     -3.333351   -0.084546    1.548072
C     -4.316778    0.428077   -0.522159
C      1.723159   -0.281719    1.048348
C      2.236910   -0.141763   -1.239086
C      2.845047    0.481990    1.330563
C      3.350200    0.615668   -0.963905
C      0.188279   -1.434010   -0.575548
C      1.392006   -0.612526   -0.248949
C     -3.236313   -0.055108    0.182861
C      3.675601    0.941096    0.315129
C     -2.044165   -0.513035   -0.514653
O     -2.002280   -0.466337   -1.771493
O      4.797080    1.704319    0.594856
O     -0.950982   -0.999523    0.152418
H      0.611414   -3.455224   -1.317077
H     -0.428967   -3.346873    0.138218
H      1.366193   -3.086683    0.255605
H      6.560778    2.599260   -0.107192
H      5.890220    1.322949   -1.162539
H      5.004245    2.873376   -1.062741
H     -6.478604    1.198020    1.927931
H     -4.591516    0.349631    3.247121
H     -6.278135    1.241667   -0.555750
H     -2.498339   -0.459996    2.132615
H     -4.238009    0.451487   -1.620607
H      1.100214   -0.620697    1.871785
H      2.010502   -0.380068   -2.265714
H      3.119296    0.749873    2.334806
H      3.983603    0.961354   -1.789975
H      0.007715   -1.303477   -1.671721
