32

C      4.832911    0.410327    1.665109
C      1.753923   -2.392281    0.361264
C      3.882811    0.896666    0.909676
C      2.466840   -1.339042    0.003175
C     -4.527161   -0.380373    0.162099
C     -3.567820   -0.785904    1.058682
C      2.423095    0.763698    1.247091
C     -4.209358    0.243179   -1.019900
C     -2.268856   -0.537763    0.716908
C      1.792217    0.006162    0.101722
C     -2.874558    0.505201   -1.384857
C     -1.911729    0.100645   -0.489751
C     -2.634466    1.166031   -2.649166
C     -0.515981    0.315172   -0.755040
O     -3.681353    1.463369   -3.343016
O     -1.477108    1.537699   -3.249671
O      0.049252    0.840875   -1.718827
O      0.401089   -0.137665    0.229432
H      4.563696   -0.117454    2.583894
H      5.865631    0.531540    1.380110
H      0.732300   -2.322009    0.712337
H      2.215321   -3.370277    0.299850
H      4.113196    1.424708   -0.006569
H      3.477000   -1.431298   -0.341645
H     -5.581994   -0.548859    0.375171
H     -3.872834   -1.271467    1.972696
H      2.370260    0.169910    2.172653
H      2.038306    1.782333    1.347504
H     -4.983553    0.552880   -1.709081
H     -1.508836   -0.857050    1.423245
H      1.989284    0.512480   -0.864318
H     -1.351527    2.268570   -3.924399
