32

C      4.326495    1.651073    0.739354
C      3.311977   -0.800981   -2.121595
C      3.073233    1.274895    0.877079
C      2.381488   -0.023805   -1.597403
C     -4.357191    1.454847    0.473599
C     -3.141135    2.088370    0.367505
C      2.712595   -0.142564    0.784344
C     -4.369049    0.100345    0.403509
C     -1.986588    1.369448    0.197125
C      1.735224   -0.438641   -0.325212
C     -3.184859   -0.657018    0.227699
C     -1.975314   -0.045053    0.121217
C     -3.311030   -2.101470    0.165934
C     -0.681715   -0.672705   -0.060276
O     -4.501270   -2.592545    0.276605
O     -2.309476   -2.994580    0.003850
O     -0.460765   -1.866515   -0.148561
O      0.480861    0.114930   -0.152124
H      4.660299    2.685992    0.797175
H      5.120235    0.914156    0.553537
H      3.585558   -1.716794   -1.621887
H      3.834454   -0.576426   -3.044678
H      2.339521    2.068256    1.060188
H      2.122850    0.901155   -2.126101
H     -5.274910    2.049114    0.610231
H     -3.151048    3.173826    0.425900
H      2.341775   -0.556950    1.768072
H      3.629102   -0.725089    0.564975
H     -5.303357   -0.419697    0.483272
H     -1.035541    1.876621    0.114771
H      1.648654   -1.548914   -0.373832
H     -2.261073   -3.843283    0.555725
