28

C     -3.003869    1.342369    0.173541
C      3.978526    0.713609   -0.306634
C     -1.185618   -1.699589   -0.845331
C     -2.288920   -0.976466   -0.101088
C      0.177784   -1.252384   -0.505080
C      1.480669    0.685243    0.188790
C     -1.828308    0.489656   -0.113186
C      2.753115   -0.052544    0.048972
C      0.332695   -0.245247    0.552878
N     -0.791318    0.558175    0.874085
O      2.880644   -1.253218    0.203555
H     -3.779536    1.146102   -0.596767
H     -3.484451    1.091861    1.149597
H     -2.760623    2.421203    0.092784
H      3.794686    1.260871   -1.253199
H      4.864399    0.066927   -0.443153
H      4.220188    1.397212    0.538122
H     -1.422485   -1.549796   -1.940253
H     -1.339970   -2.808876   -0.697857
H     -3.247566   -1.093433   -0.615863
H     -2.330531   -1.342886    0.946696
H      0.678315   -0.897942   -1.455349
H      0.776676   -2.172013   -0.229913
H      1.176827    1.196347   -0.749369
H      1.611438    1.451145    0.980415
H     -1.410375    0.738669   -1.092189
H      0.663579   -0.746243    1.511598
H     -0.515968    1.531246    1.129957
