52

C     -4.651277    2.705692   -2.576624
C     -3.789354    1.225379    2.705851
C      5.868556    0.831186    0.827840
C      1.028242    2.981080    2.433463
C     -1.522505   -0.004068   -1.631387
C     -2.546207    0.884816   -1.956260
C      2.355662   -2.473906   -0.768371
C     -2.115177    0.151546    0.635754
C      3.434673   -0.529798    0.250589
C      1.049252    0.549920    1.053446
C      0.926763   -3.749133   -2.431734
C     -1.293296   -0.383518   -0.325130
C      2.245772   -1.167527   -0.015971
C      1.149050   -2.461788   -1.677288
C      1.053640   -0.639473    0.378788
C     -3.344159    1.394897   -0.959192
C     -3.127957    1.026258    0.346861
C      3.426617    0.662207    0.927079
C      2.231209    1.197849    1.326305
C     -0.230381   -1.316087    0.100595
C     -0.048481   -2.519503   -0.739922
C     -1.095081   -2.891522   -1.674407
O     -2.339614   -2.634274   -1.728883
O     -4.367713    2.282413   -1.275500
O     -3.956204    1.561680    1.341683
O      4.616574    1.321206    1.205642
O      2.276515    2.411477    2.010724
O     -0.492639   -3.679583   -2.649175
H     -4.581823    1.843597   -3.254664
H     -3.930329    3.500970   -2.910622
H     -5.682906    3.130574   -2.569809
H     -4.558515    1.772490    3.280616
H     -2.780198    1.523156    3.075856
H     -3.916870    0.122984    2.786584
H      6.248115    0.170555    1.630694
H      6.585173    1.703847    0.805071
H      5.912158    0.383769   -0.166732
H      0.429314    3.093419    1.491751
H      0.521787    2.350384    3.172404
H      1.175038    3.978190    2.871281
H     -0.887894   -0.411975   -2.395285
H     -2.678964    1.148054   -3.010163
H      3.261823   -2.522984   -1.366485
H      2.220933   -3.315743   -0.058255
H     -1.968186   -0.123149    1.687006
H      4.385405   -0.966912   -0.073243
H      0.117658    1.026301    1.397939
H      1.149463   -4.582742   -1.737873
H      1.485592   -3.808384   -3.369450
H      1.150660   -1.617670   -2.360500
H     -0.549188   -1.703410    1.120970
H      0.149274   -3.432747   -0.097419
