52

C     -5.726444    0.003360    1.740156
C     -3.196905   -1.171339   -3.129690
C      4.165214    4.499556   -0.643386
C      1.752079    2.925023    3.473604
C     -1.645106   -0.665664    1.708837
C     -2.998037   -0.455608    1.650271
C      1.740400   -0.725970   -1.930756
C     -1.689456   -1.025245   -0.621689
C      2.587056    1.416018   -1.032782
C      1.455860    1.006991    1.382182
C      1.612047   -3.152321   -2.297901
C     -0.958170   -0.960558    0.544166
C      1.867212    0.272508   -0.817757
C      1.902842   -2.076672   -1.299023
C      1.283791    0.048453    0.407352
C     -3.709552   -0.525628    0.474780
C     -3.055284   -0.816810   -0.698271
C      2.771423    2.409525   -0.038427
C      2.159925    2.147041    1.205536
C      0.511431   -1.192609    0.622592
C      0.997031   -2.370697   -0.156844
C     -0.058609   -3.231521   -0.716494
O     -1.091369   -3.672737   -0.158720
O     -5.089048   -0.295125    0.514272
O     -3.733471   -0.895116   -1.884220
O      3.453583    3.497493   -0.234720
O      2.332823    3.116134    2.195369
O      0.276476   -3.500150   -2.031747
H     -5.852186   -0.870764    2.397379
H     -5.211955    0.856822    2.229882
H     -6.748564    0.373850    1.491048
H     -2.150638   -0.866090   -3.296568
H     -3.191518   -2.290776   -3.291623
H     -3.772753   -0.754101   -3.980530
H      4.480003    4.501763   -1.741174
H      3.595630    5.486683   -0.509716
H      5.107007    4.695554   -0.046157
H      2.265745    2.092738    4.001787
H      1.858203    3.859735    4.073810
H      0.681792    2.716755    3.401089
H     -1.104253   -0.601710    2.673641
H     -3.499194   -0.225239    2.607375
H      2.624246   -0.622781   -2.631846
H      0.856629   -0.596839   -2.542245
H     -1.187502   -1.248995   -1.557200
H      3.074509    1.652372   -1.984321
H      0.993374    0.839137    2.368617
H      1.729339   -2.841999   -3.354558
H      2.262288   -4.049716   -2.105068
H      2.968891   -2.182150   -0.984833
H      0.710456   -1.458117    1.713538
H      1.592705   -3.074463    0.516972
