43

C     -3.660374    0.619417    1.261925
C     -0.861442   -2.319962    0.425528
C     -1.840892   -1.274728    0.848282
C     -0.324090   -2.109985   -0.946827
C      3.683611   -0.755972    1.003569
C     -2.232034   -0.469720   -0.367968
C      0.800107   -1.470473   -1.185337
C      2.805901   -1.730099    0.275702
C      3.090194    0.622485    0.809678
C      0.557786    1.781012   -1.663550
C     -0.610483    2.335576   -1.869796
C     -2.898274    0.821065   -0.058587
C      1.584851   -0.927014   -0.076758
C      2.186504    0.429688   -0.389624
C      1.122477    1.517206   -0.355044
C     -1.512053    2.764852   -0.819002
O      0.276408    1.285044    0.686232
O     -1.791550    4.041626   -0.790430
O     -2.083397    1.926971    0.129319
H     -4.445436    1.408716    1.375559
H     -2.999295    0.637778    2.128761
H     -4.209513   -0.344157    1.263848
H     -1.405254   -3.309448    0.370396
H     -0.057689   -2.497291    1.170840
H     -2.743820   -1.761554    1.278140
H     -1.459566   -0.608969    1.648095
H     -0.858472   -2.490030   -1.833481
H      4.696915   -0.799091    0.550409
H      3.758613   -1.061266    2.048591
H     -1.367493   -0.292232   -1.046331
H     -2.927407   -1.116969   -0.944122
H      1.166058   -1.333337   -2.196219
H      2.511400   -2.591583    0.929259
H      3.256584   -2.099121   -0.665439
H      3.878576    1.375427    0.608004
H      2.457376    0.894476    1.679221
H      1.158584    1.487784   -2.539301
H     -0.947992    2.506525   -2.936539
H     -3.718654    0.959671   -0.811525
H      1.006984   -0.788857    0.864989
H      2.783204    0.457530   -1.295082
H      1.716216    2.444337   -0.068591
H      0.456829    1.834671    1.503204
