48

C      2.706720   -1.141240    3.589944
C      2.703159   -0.780014    2.114244
C     -1.322054   -1.044608   -4.087988
C     -4.483674   -0.260497    2.171153
C      3.451766    2.280910   -1.701124
C     -1.019607   -1.846238   -3.019406
C     -1.514444    0.306556   -3.875633
C     -3.433561   -1.146326    2.132822
C     -4.366842    0.894092    1.455759
C      3.089608    0.986464   -2.018330
C      2.804746    2.913525   -0.659351
C     -0.905294   -1.331145   -1.747625
C     -1.395419    0.793107   -2.603819
C     -2.265908   -0.908626    1.396295
C     -3.210727    1.151688    0.714089
C      2.087192    0.346767   -1.288769
C      1.819574    2.252893    0.039885
C     -1.092337    0.031225   -1.488710
C     -2.164443    0.255833    0.683282
C      1.428627    0.939450   -0.256927
C      1.638915   -1.529072    1.416815
C     -0.970062    0.579048   -0.119584
C      0.342149    0.309662    0.548230
N      0.664812   -1.052439    0.770316
O      1.706147   -2.938505    1.470640
H      2.848115   -2.226483    3.759964
H      3.542409   -0.631876    4.113523
H      1.774923   -0.850077    4.103825
H      3.727422   -1.025936    1.734226
H      2.529970    0.311869    2.066943
H     -1.411767   -1.458792   -5.094598
H     -5.391295   -0.442866    2.741620
H      4.226629    2.793041   -2.255415
H     -0.874563   -2.899667   -3.215447
H     -1.755520    0.943682   -4.727959
H     -3.506289   -2.067610    2.693681
H     -5.186879    1.619504    1.465521
H      3.588114    0.477071   -2.832619
H      3.081993    3.936447   -0.399054
H     -0.664640   -2.017545   -0.949878
H     -1.556283    1.874673   -2.475821
H     -1.492425   -1.665300    1.423790
H     -3.204007    2.083990    0.182319
H      1.857012   -0.651250   -1.576223
H      1.348742    2.802785    0.847216
H     -1.037512    1.715834   -0.285199
H      0.400835    0.816173    1.556607
H      0.855978   -3.500176    1.486768
