48

C     -4.060467   -1.948963   -0.155006
C     -2.582694   -2.164571   -0.384485
C      3.284165    1.374370    2.899534
C      3.161140   -1.669391   -3.421186
C     -2.896468    2.309337    2.364429
C      3.177758    2.277095    1.869866
C      2.588526    0.193340    2.799590
C      3.129396   -0.290457   -3.415292
C      2.422633   -2.322110   -2.456402
C     -2.233734    1.224256    2.883719
C     -2.765146    2.589156    1.024395
C      2.390321    1.972817    0.789914
C      1.798651   -0.112578    1.716928
C      2.386641    0.397461   -2.478954
C      1.676710   -1.633346   -1.516013
C     -1.455905    0.444247    2.054111
C     -1.988173    1.802295    0.218416
C      1.688999    0.787324    0.684313
C      1.641117   -0.254509   -1.505183
C     -1.296582    0.688693    0.705995
C     -2.063480   -1.350651   -1.503333
C      0.853691    0.509989   -0.513251
C     -0.463388   -0.142729   -0.180419
N     -1.144313   -0.472574   -1.419145
O     -2.631841   -1.566700   -2.754770
H     -4.412827   -1.004295   -0.578706
H     -4.660627   -2.776177   -0.616827
H     -4.313299   -1.975849    0.930630
H     -2.453661   -3.264219   -0.602554
H     -2.068042   -1.973668    0.578038
H      3.910833    1.642972    3.734228
H      3.733913   -2.238205   -4.142275
H     -3.520550    2.951219    2.983293
H      3.719216    3.233515    1.912857
H      2.696423   -0.498666    3.634528
H      3.709050    0.218375   -4.172433
H      2.432762   -3.399718   -2.442178
H     -2.355659    1.028784    3.940308
H     -3.294990    3.458115    0.604779
H      2.323468    2.717341   -0.023058
H      1.275958   -1.059238    1.696802
H      2.367247    1.468363   -2.481131
H      1.094759   -2.163192   -0.755240
H     -0.959738   -0.397352    2.516580
H     -1.891872    2.027709   -0.823218
H      0.598994    1.511889   -0.963325
H     -0.245903   -1.093178    0.344934
H     -2.303011   -1.056329   -3.583803
