36

C     -2.149451    3.681585   -0.491495
C      2.908305    0.520915   -1.142092
C      3.098561   -0.259623    1.526579
C     -1.114228    2.626268   -0.789384
C     -2.030393   -3.559279    1.054370
C     -2.195515   -2.419403    1.820380
C     -1.443025   -3.473930   -0.177252
C     -1.778208   -1.191002    1.369391
C     -1.026490   -2.228282   -0.621955
C      0.510930    0.191181   -1.109760
C      1.701783    0.501633   -0.227270
C     -1.184252   -1.079637    0.133330
C     -1.505302    1.296427   -0.256139
N      1.925996   -0.565176    0.743324
N     -0.722221    0.134392   -0.410156
O     -2.620188    1.256114    0.369760
H     -2.553440    4.089659   -1.459486
H     -2.979251    3.273057    0.105789
H     -1.675333    4.528879    0.052656
H      2.584562    0.937270   -2.117598
H      3.140108   -0.564901   -1.357954
H      3.763955    1.049348   -0.706428
H      3.971934   -0.908860    1.228197
H      2.932160   -0.482568    2.598583
H      3.383986    0.813293    1.421305
H     -0.988457    2.518916   -1.899217
H     -0.131643    2.963325   -0.399448
H     -2.368351   -4.497061    1.437137
H     -2.662494   -2.534034    2.778775
H     -1.311321   -4.367448   -0.777617
H     -1.907659   -0.298848    1.965605
H     -0.568749   -2.244016   -1.611414
H      0.508425    1.013308   -1.888601
H      0.777116   -0.713842   -1.692630
H      1.643439    1.464929    0.268692
H      2.064716   -1.472593    0.262024
