56

C     -0.389620    1.865741    1.903993
C     -5.005980   -0.248082    2.579965
C     -1.938642    2.957429   -2.639336
C     -0.687820   -3.913146   -0.975565
C     -3.823475   -0.006685    3.265336
C     -4.935417   -0.385355    1.210587
C     -0.895969    2.040305   -2.747957
C     -2.762257    2.920192   -1.539536
C     -1.240428   -2.960989   -1.797151
C     -0.322937   -3.601013    0.303466
C     -2.640008    0.087175    2.577542
C     -3.754270   -0.291210    0.527589
C     -0.695542    1.102746   -1.756355
C     -2.545173    1.964483   -0.543882
C     -1.446251   -1.670477   -1.371604
C     -0.533771   -2.283112    0.735818
C      4.555556   -0.735237    0.593394
C      3.659275    0.799906   -0.937000
C      5.778305   -0.706780   -0.027876
C      4.886338    0.847173   -1.584659
C     -0.155149    0.464721    1.304748
C      3.471461    0.012772    0.157767
C     -2.585580   -0.050714    1.220769
C     -1.515118    1.054400   -0.646903
C     -1.084715   -1.324251   -0.077466
C      5.961295    0.090202   -1.132486
C      2.228637   -0.107022    0.906474
C     -1.290089    0.044790    0.444390
N      7.222224    0.109018   -1.758348
O      2.162308   -0.863923    1.910561
O      7.419241    0.894348   -2.856405
O      8.154219   -0.574252   -1.326419
O      1.065889    0.571319    0.590345
H      0.018235    1.878169    2.934913
H      0.239664    2.634632    1.363094
H     -1.416107    2.198964    1.793850
H     -5.913466   -0.315195    3.152062
H     -2.105192    3.688614   -3.398922
H     -0.527663   -4.936437   -1.319040
H     -3.794916    0.114597    4.350105
H     -5.873932   -0.576715    0.667720
H     -0.244205    2.070644   -3.619654
H     -3.560320    3.635836   -1.475116
H     -1.512095   -3.271292   -2.809795
H      0.101925   -4.357022    0.917271
H     -1.726180    0.264834    3.136461
H     -3.716887   -0.404372   -0.572745
H      0.112827    0.389427   -1.835596
H     -3.232952    2.016843    0.276130
H     -1.888115   -0.933404   -2.020291
H     -0.240290   -2.107272    1.754549
H      4.448593   -1.374142    1.458080
H      2.846299    1.389358   -1.300901
H      6.605635   -1.319186    0.355296
H      5.058642    1.465724   -2.456573
H      0.003965   -0.257076    2.117435
