40

C      0.232410   -0.842935   -2.602849
C      6.073754    0.465511    0.501872
C      6.047748    0.150633   -0.841724
C     -5.010719    2.411482    0.752425
C     -3.781718    2.689714    0.207569
C      4.941471    0.429069    1.254607
C      4.862796   -0.203807   -1.424657
C     -5.325364    1.113162    0.995106
C     -2.917577    1.678147   -0.074019
C      2.567387    0.033026    1.447737
C      1.360102   -0.319969    0.888967
C      2.489067   -0.591733   -1.196641
C      0.058542   -1.024508   -1.109551
C      3.717150    0.071283    0.688833
C      1.334529   -0.635301   -0.456966
C      3.714928   -0.239214   -0.654908
C     -4.431714    0.057055    0.704742
C     -3.204652    0.318265    0.162139
C     -4.853065   -1.302814    0.997864
C     -2.209000   -0.670337   -0.177197
O     -6.027361   -1.417375    1.505758
O     -4.209691   -2.476929    0.823599
O     -2.228239   -1.891957   -0.066323
O     -1.006116   -0.177764   -0.728998
H      0.838923   -1.648737   -3.064751
H      0.785737    0.106178   -2.754638
H     -0.742527   -0.707869   -3.117312
H      7.009522    0.744122    0.956603
H      6.941328    0.172092   -1.467394
H     -5.685482    3.247160    0.968449
H     -3.547558    3.740030    0.019895
H      4.930776    0.671443    2.313527
H      4.829352   -0.452972   -2.477505
H     -6.285626    0.888338    1.421447
H     -1.968622    1.930627   -0.497887
H      2.621206    0.285200    2.497265
H      0.436766   -0.353615    1.485748
H      2.527236   -0.832608   -2.269678
H     -0.186070   -2.104947   -0.914912
H     -4.699628   -3.307149    0.506430
