33

C     -2.964883   -2.194062    0.948354
C     -1.410220    2.932138   -1.014826
C      3.402657   -0.647842   -1.374246
C     -3.550266    0.054588    0.163945
C     -3.195341    1.296098   -0.310192
C      1.014510   -1.237024    0.358876
C     -0.318406   -1.554306    0.555053
C      0.437463    0.935188   -0.398405
C     -2.576693   -0.882589    0.446645
C     -1.863913    1.616066   -0.507502
C      2.854850    0.260282   -0.297723
C      1.389880    0.003979   -0.116327
C     -1.244995   -0.577611    0.254810
C     -0.902601    0.658314   -0.216539
C      3.580967    0.147822    0.977941
O      4.220445    1.128334    1.440685
O      3.565981   -1.043054    1.681826
H     -2.751183   -2.259784    2.053493
H     -2.536204   -3.050204    0.402097
H     -4.065273   -2.298221    0.863934
H     -0.666894    3.357190   -0.308538
H     -0.935898    2.772434   -2.015582
H     -2.279707    3.616435   -1.122460
H      4.401953   -0.289971   -1.660445
H      3.512160   -1.668619   -0.970423
H      2.680532   -0.598160   -2.227792
H     -4.607277   -0.144684    0.300630
H     -3.932731    2.062319   -0.544872
H      1.737690   -2.006112    0.595286
H     -0.643349   -2.511922    0.924192
H      0.728623    1.915736   -0.773564
H      2.938852    1.302517   -0.698142
H      3.979269   -1.095273    2.589811
