33

C     -2.707213    2.598378   -1.031244
C     -1.716810   -2.545718    1.276084
C      3.430830   -0.860460   -1.374878
C     -3.523349    0.484959    0.028693
C     -3.323240   -0.759082    0.590295
C      1.153877    1.034619   -0.655723
C     -0.135717    1.539554   -0.773063
C      0.330168   -0.943072    0.341594
C     -2.485515    1.268519   -0.431597
C     -2.032550   -1.220979    0.687437
C      2.802384   -0.722350    0.012417
C      1.408624   -0.198835   -0.104053
C     -1.198774    0.789747   -0.326223
C     -0.958199   -0.451869    0.230546
C      3.661168    0.181957    0.820599
O      4.694056    0.710442    0.333146
O      3.326679    0.452119    2.130342
H     -2.328222    3.387112   -0.329608
H     -2.283961    2.694827   -2.045712
H     -3.796801    2.801381   -1.129321
H     -2.679897   -3.078938    1.416041
H     -1.117532   -3.174775    0.587559
H     -1.263126   -2.464155    2.287034
H      4.500788   -1.102850   -1.197739
H      2.980395   -1.764448   -1.877255
H      3.286239    0.047756   -1.978405
H     -4.528064    0.873612   -0.060508
H     -4.112144   -1.391683    0.957432
H      1.979443    1.635921   -1.011592
H     -0.337301    2.491583   -1.198402
H      0.482267   -1.925431    0.785672
H      2.836606   -1.709698    0.469482
H      3.654892    1.321858    2.570949
