44

C     -5.316070   -0.526136   -2.205000
C     -1.859966    2.068457    1.617490
C      0.882608   -2.562366    1.087601
C      5.729851    2.352432    0.098084
C      6.161888    1.055801    0.277589
C      4.374018    2.542294   -0.108500
C      5.302547   -0.028409    0.257424
C      3.516413    1.459739   -0.128572
C     -4.886669    1.286246   -0.517488
C     -4.052777    1.898653    0.393755
C     -1.413024   -1.869418   -1.366061
C     -2.686117   -1.402829   -1.616624
C     -1.045797   -0.158725    0.207971
C     -4.451526    0.173859   -1.207411
C     -2.780415    1.429539    0.641838
C      0.811644   -1.797197   -0.206374
C      3.951845    0.165969    0.051142
C     -0.568909   -1.266595   -0.457549
C     -3.168213   -0.287283   -0.947423
C     -2.325996    0.316052   -0.039441
C      3.007834   -0.948985    0.021973
N      1.765635   -0.699031   -0.174265
O      3.443156   -2.269695    0.204106
H     -5.039336   -0.314432   -3.239102
H     -5.345557   -1.631999   -1.978538
H     -6.373900   -0.191842   -2.057677
H     -0.998191    2.535742    1.127593
H     -1.524998    1.265080    2.333310
H     -2.420552    2.872053    2.169210
H     -0.057797   -2.455995    1.687340
H      1.693019   -2.190825    1.751880
H      0.978335   -3.673270    0.920696
H      6.395027    3.205451    0.112418
H      7.215624    0.866103    0.442019
H      4.014045    3.547726   -0.251177
H      5.636404   -1.051578    0.398082
H      2.456502    1.634790   -0.292515
H     -5.881598    1.674697   -0.693873
H     -4.413626    2.773540    0.927161
H     -1.045871   -2.740874   -1.893509
H     -3.349635   -1.869308   -2.324813
H     -0.390875    0.321280    0.922862
H      1.115299   -2.483813   -1.023318
H      2.945722   -3.024896   -0.291689
