45

C     -0.751182   -1.324455   -2.950963
C     -1.967766    2.747133    2.288215
C     -3.783288   -2.206735    0.934708
C      5.189064    1.141913    1.002880
C     -2.303620    3.055127    0.987223
C     -1.002653    1.808035    2.509613
C     -3.895455   -2.062813   -0.439940
C     -2.515313   -2.107598    1.467573
C      5.202860   -0.201128    0.720749
C      4.056889    1.876350    0.762012
C     -1.679873    2.429768   -0.068346
C     -0.393979    1.197200    1.440547
C     -2.811515   -1.831439   -1.259107
C     -1.422812   -1.876164    0.657530
C      4.077100   -0.791034    0.198933
C      2.923648    1.231135    0.225962
C     -0.082587    0.879458   -1.050305
C     -0.367459   -1.509111   -1.528608
C     -0.687807    1.463792    0.115617
C     -1.550755   -1.737101   -0.691880
C      2.892395   -0.103538   -0.070633
C      1.778301   -0.801788   -0.596538
N      0.495637   -0.404894   -1.015734
O      1.958640   -2.089284   -0.729010
H     -1.122700   -2.311045   -3.317287
H     -1.476902   -0.562232   -3.193799
H      0.173100   -1.105036   -3.540888
H     -2.472907    3.252899    3.098753
H     -4.667742   -2.389411    1.550091
H      6.097531    1.571066    1.413774
H     -3.078505    3.809584    0.840420
H     -0.738803    1.566145    3.536506
H     -4.875899   -2.134439   -0.895942
H     -2.417174   -2.218280    2.537617
H      6.094564   -0.816667    0.902682
H      4.065117    2.922480    0.988443
H     -1.995990    2.723122   -1.067664
H      0.356190    0.467369    1.619511
H     -2.884223   -1.720647   -2.313863
H     -0.439751   -1.807276    1.139741
H      4.121852   -1.823677   -0.006733
H      2.071775    1.869253    0.072628
H     -0.960152    0.806022   -1.804041
H      0.594489    1.605726   -1.559037
H      0.197659   -2.487788   -1.491223
