42

C      6.489446    0.118674    1.579966
C     -1.895412   -0.628924   -2.003420
C     -5.838812   -1.175919    0.542869
C     -4.778885   -2.030325    0.658422
C     -5.604862    0.182526    0.482109
C     -3.522397   -1.524652    0.710724
C      4.423656    1.033347    0.543639
C      5.118916   -1.152947   -0.099418
C      3.329394    0.945345   -0.307613
C      4.014128   -1.219180   -0.946916
C      5.314499   -0.008226    0.648854
C     -0.670047   -0.077402   -1.382884
C      3.123066   -0.185300   -1.056354
C     -4.324181    0.687471    0.536003
C     -3.230666   -0.157148    0.653160
C     -0.910633    0.293763    0.028668
C     -4.068404    2.113369    0.472879
N     -1.924057    0.229260    0.728408
O      0.243943    0.824916    0.706226
O     -5.035439    2.898268    0.367163
O     -2.790716    2.624449    0.526226
O      2.103572   -1.214775   -3.297716
O      1.505595    1.047461   -2.706307
O      0.411380   -0.956673   -1.393770
S      1.765399   -0.309863   -2.120642
H      6.118645    0.021079    2.624345
H      6.881573    1.144567    1.429574
H      7.224121   -0.668058    1.348619
H     -2.761969    0.003778   -1.744264
H     -1.867086   -0.559331   -3.141584
H     -2.012216   -1.692621   -1.705137
H     -6.861418   -1.550609    0.498247
H     -4.968011   -3.102940    0.706114
H     -6.450461    0.861439    0.390077
H     -2.698372   -2.242193    0.803527
H      4.588713    1.914515    1.130301
H      5.827353   -1.964822   -0.007067
H      2.652725    1.795862   -0.356191
H      3.899417   -2.136684   -1.515743
H     -0.306402    0.861321   -1.890299
H      0.098302    1.388632    1.523159
H     -2.613400    3.568553    0.901234
