48

C      6.108832    0.265619   -0.890163
C      0.552279   -2.214080    1.105328
C     -3.264423   -2.804827   -2.153160
C     -4.055969    3.758033    0.922962
C     -3.299606   -2.338436   -0.854259
C     -2.248424   -2.350250   -2.968855
C     -3.630377    3.002724   -0.127266
C     -3.452059    3.558427    2.134874
C     -2.342214   -1.451454   -0.414194
C     -1.302059   -1.471620   -2.528947
C     -2.610845    2.057686    0.034648
C     -2.457614    2.633904    2.283006
C      3.906907    1.085365    0.024186
C      4.285926   -1.226810   -0.130667
C      2.655829    0.831271    0.544566
C      3.021138   -1.483796    0.395373
C     -0.299624   -0.053538   -0.777771
C      4.748364    0.049864   -0.324378
C      0.858490   -0.751761    1.290918
C     -1.336845   -1.010189   -1.243900
C      2.180906   -0.453392    0.743522
C     -1.985743    1.829929    1.220627
C     -0.915499    0.904707    1.488424
N     -0.184216    0.078765    0.637032
O     -0.595261    0.853943    2.769525
H      6.234515    1.292742   -1.255133
H      6.295414   -0.509051   -1.648297
H      6.825395    0.068506   -0.051566
H     -0.469381   -2.452040    1.506215
H      1.234321   -2.848444    1.748176
H      0.715609   -2.537368    0.075480
H     -3.989146   -3.500101   -2.549140
H     -4.839463    4.489142    0.813180
H     -4.094960   -2.683785   -0.188051
H     -2.215362   -2.713663   -3.992145
H     -4.103312    3.156548   -1.083958
H     -3.785734    4.154786    2.972383
H     -2.405409   -1.108454    0.615037
H     -0.531570   -1.145288   -3.196052
H     -2.368186    1.519157   -0.835332
H     -2.029919    2.536651    3.274173
H      4.287252    2.088151   -0.135115
H      4.941682   -2.054429   -0.402283
H      2.008099    1.643082    0.812866
H      2.773096   -2.527591    0.497761
H      0.686613   -0.495236   -1.184331
H     -0.374305    0.873369   -1.353798
H      0.866860   -0.546767    2.378499
