34

C      2.575923   -2.457900    0.799634
C      0.314461    1.970666   -1.201978
C      2.384456   -1.799653   -0.543302
C     -2.701520   -2.391217   -1.020807
C     -1.740742   -2.545904   -0.050464
C     -3.051088   -1.112483   -1.394602
C     -1.157831   -1.442802    0.517697
C     -2.446818    0.006151   -0.805164
C     -0.808769    0.973257    0.832837
C      0.688805    3.731156    1.074618
C     -1.481297   -0.134172    0.169026
C      1.514610    0.372884    0.224510
C      0.467495    1.462121    0.195589
N      0.953336    2.513506    1.045419
O     -0.191789    4.406505    0.244198
O      2.491901    0.532607    0.983432
O      1.445029   -0.764328   -0.531521
H      1.804594   -3.233274    1.000114
H      3.550081   -3.010483    0.787129
H      2.650886   -1.713905    1.610148
H      0.819191    2.971945   -1.288832
H     -0.743414    2.122775   -1.453929
H      0.788865    1.244620   -1.920029
H      3.372284   -1.505925   -0.953516
H      1.968175   -2.599568   -1.222403
H     -3.138192   -3.278936   -1.445556
H     -1.422097   -3.538427    0.287522
H     -3.806316   -1.012383   -2.156808
H     -0.410618   -1.575081    1.281802
H     -2.763744    0.967000   -1.130673
H     -1.515371    1.811380    0.921296
H     -0.525887    0.728296    1.894507
H      1.201174    4.339379    1.832551
H     -1.085773    3.962193   -0.003320
