42

C      6.769196   -0.293763   -1.051644
C      0.114503   -0.480907   -1.263196
C     -6.403879   -0.748096    0.621248
C     -5.520715   -1.543978    1.341011
C     -5.979746    0.089861   -0.375267
C     -4.190427   -1.440795    0.992983
C      5.075343    1.338318   -0.257427
C      4.714181   -0.975835    0.147958
C      3.892919    1.606681    0.374212
C      3.517659   -0.715352    0.788110
C      5.480918    0.032935   -0.366497
C     -0.042451   -0.221559    0.219477
C      3.117591    0.599011    0.893333
C     -4.640781    0.164755   -0.693708
C     -3.740958   -0.608200   -0.002104
C     -1.486022   -0.289611    0.581088
C     -4.199546    1.075723   -1.773561
N     -2.374841   -0.539106   -0.318958
O     -1.883172   -0.083643    1.895721
O     -5.034931    1.775498   -2.396032
O     -2.874106    1.174829   -2.116253
O      1.759232    2.425096    2.226616
O      1.312559    0.116719    2.825529
O      0.410214    1.045010    0.532315
S      1.624088    1.033462    1.682643
H      6.520282   -0.980834   -1.871200
H      7.242260    0.636835   -1.405929
H      7.458625   -0.739828   -0.295300
H      0.991874   -1.109727   -1.479787
H      0.304110    0.497628   -1.788107
H     -0.799059   -0.913769   -1.718974
H     -7.469290   -0.803370    0.869869
H     -5.884163   -2.190436    2.116179
H     -6.679511    0.718174   -0.943029
H     -3.497350   -2.074627    1.567995
H      5.692555    2.138815   -0.670536
H      5.032953   -2.019921    0.063828
H      3.590739    2.655548    0.448727
H      2.904453   -1.525351    1.199844
H      0.481965   -1.017074    0.788748
H     -2.812670    0.259063    2.128079
H     -2.494601    1.931821   -2.675666
