32

C      0.235555   -0.741194    1.730463
C     -0.052835   -2.727166   -0.506668
C      2.105830   -1.903731   -0.183715
C      2.347596    2.786555    0.791974
C     -3.355203    1.492904   -0.785384
C     -2.558987    1.946210    0.233667
C     -2.950377    0.376490   -1.481506
C     -1.383576    1.304755    0.556893
C     -1.772858   -0.274167   -1.165854
C     -0.958960    0.179633   -0.132446
C      1.369372    0.633020    0.141888
C      0.323145   -0.443025    0.235434
N      0.743326   -1.551859   -0.523610
O      2.338176    0.506006   -0.663135
O      1.351111    1.778658    0.890074
H      1.050771   -1.368983    2.093069
H      0.288216    0.241345    2.240173
H     -0.771558   -1.156845    1.990498
H     -1.003823   -2.660872    0.062002
H      0.527550   -3.523649    0.053115
H     -0.261228   -3.196643   -1.483296
H      2.153885   -2.995356    0.111495
H      2.507492   -1.356957    0.685602
H      2.808801   -1.736577   -1.029725
H      2.000907    3.702276    1.290977
H      3.267007    2.361439    1.243551
H      2.570561    2.987122   -0.268350
H     -4.277160    1.980401   -1.052580
H     -2.867922    2.815851    0.780502
H     -3.528057   -0.044977   -2.303940
H     -0.818738    1.726319    1.392893
H     -1.428019   -1.136983   -1.696481
