19

C      1.238418    0.274732   -0.893493
C     -3.209854    0.140986   -0.125079
C      0.281997    0.546364    1.329048
C      3.447234   -0.647064    0.440759
C      1.093109   -0.375340    0.469963
C     -1.915209   -0.236678    0.497018
N      2.398599   -0.535412    1.118464
O      4.500743   -0.895643   -0.163093
O     -1.653809   -1.411958    0.794297
O     -0.976105    0.735455    0.753640
H      2.312901    0.515227   -1.026583
H      0.637230    1.211493   -0.971352
H      0.857468   -0.389032   -1.709294
H     -3.222943    1.213616   -0.371783
H     -4.031241   -0.050966    0.605225
H     -3.416581   -0.431165   -1.054350
H      0.800478    1.534927    1.334698
H      0.238070    0.167785    2.372119
H      0.619498   -1.367326    0.336454
