43

C     -7.662131    1.440147    0.194953
C      7.246047    1.844465    0.465080
C     -6.770861    1.814738   -0.803749
C     -7.199372    0.625558    1.221363
C      6.013224    2.304594    0.893041
C      7.387425    0.507589    0.193158
C     -5.450432    1.401476   -0.800942
C     -5.880175    0.225059    1.205212
C      4.978361    1.426648    1.032894
C      6.319074   -0.376983    0.341318
C     -3.577822    0.168629    0.193359
C      3.920355   -0.859707    0.934907
C      1.211925   -0.087045   -0.593476
C     -4.984495    0.585962    0.225366
C      5.088114    0.070331    0.766530
C      0.182184   -1.198128   -0.721226
C      0.390298   -1.825575   -2.045604
C     -2.118075   -1.568752   -0.628772
N     -1.157936   -0.714295   -0.616536
O     -0.568109   -1.852061   -2.853085
O      1.594228   -2.381898   -2.427695
O     -1.883917   -2.951216   -0.741356
O     -3.408655   -1.062936   -0.525038
Se     2.964233   -0.928407   -0.736591
H     -8.702211    1.768452    0.188505
H      8.029947    2.575351    0.370561
H     -7.166284    2.457683   -1.599481
H     -7.871269    0.306720    2.030075
H      5.846691    3.333990    1.118718
H      8.364546    0.160936   -0.142915
H     -4.763057    1.699214   -1.584681
H     -5.545622   -0.409877    2.017715
H      3.988478    1.750379    1.368576
H      6.461398   -1.431963    0.118048
H     -2.881787    0.947299   -0.164471
H     -3.277902   -0.046058    1.255919
H      4.296396   -1.853746    1.253324
H      3.267855   -0.491948    1.741461
H      1.141963    0.624700   -1.461523
H      1.173543    0.424423    0.375627
H      0.389664   -1.902041    0.112627
H      1.551267   -3.209097   -3.026212
H     -0.937107   -3.312608   -0.551197
