41

C     -2.392222   -4.075614   -0.149993
C     -0.692580   -0.268837   -2.316615
C     -1.918343   -3.248767    1.014047
C      5.471346    0.424599    0.686027
C     -2.802257    3.549146   -0.225489
C      4.787513    0.578372    1.876359
C      4.754414    0.215984   -0.453358
C     -2.834506    2.593548    0.775206
C     -2.102976    3.328451   -1.383425
C      3.425578    0.519662    1.891116
C      3.380281    0.159444   -0.421064
C     -2.162889    1.400759    0.625124
C     -1.435891    2.134875   -1.523394
C      2.656000    0.311167    0.767730
C     -1.456492    1.171208   -0.537288
C      1.193864    0.247027    0.776445
C     -1.497826   -1.217706   -0.287042
C     -0.683847   -0.076762   -0.787315
N      0.601326    0.058009   -0.280896
O      0.540500    0.402448    1.980270
O     -2.677793   -1.294985   -0.704930
O     -1.054361   -2.183886    0.590295
H     -1.983174   -5.120246   -0.054405
H     -2.020878   -3.599339   -1.090836
H     -3.482443   -4.164186   -0.218554
H      0.124915    0.283905   -2.786104
H     -1.664097    0.125867   -2.661144
H     -0.685266   -1.353937   -2.568524
H     -1.461215   -3.828705    1.823626
H     -2.840911   -2.767107    1.451110
H      6.556469    0.466234    0.641057
H     -3.334273    4.482731   -0.095548
H      5.391178    0.743499    2.767734
H      5.310931    0.096946   -1.382678
H     -3.389973    2.772713    1.691220
H     -2.074110    4.065070   -2.163013
H      2.904921    0.643506    2.841060
H      2.859515   -0.006254   -1.340164
H     -2.199570    0.662560    1.403683
H     -0.896272    1.999066   -2.449200
H     -0.214590   -0.230463    2.278867
