43

C     -5.947106   -0.315619    1.419789
C      6.909232   -0.860808   -0.950207
C     -4.901701   -1.207182    1.377370
C     -6.233271    0.451867    0.328299
C      6.608659    0.443167   -1.291967
C      6.089440   -1.483563   -0.050775
C     -4.127320   -1.337349    0.228489
C     -5.472855    0.326645   -0.805163
C      5.518623    1.109289   -0.750856
C      5.004216   -0.843725    0.498176
C     -3.609020   -0.679255   -2.099409
C      3.517337    1.098609    0.783283
C      0.873847   -0.662264    0.327625
C     -4.408966   -0.569912   -0.870822
C      4.714383    0.465937    0.145717
C     -0.561483   -0.271701    0.635755
C     -0.622616    0.789143    1.690709
C     -1.607826    0.612870   -1.412507
N     -1.410834   -0.120516   -0.448893
O      0.130929    0.778756    2.683361
O     -1.528698    1.804058    1.572598
O     -0.830511    1.717821   -1.686888
O     -2.667414    0.327237   -2.284326
Se     1.967514    0.771842   -0.305820
H     -6.541308   -0.233685    2.339198
H      7.766402   -1.370238   -1.382015
H     -4.647997   -1.833388    2.230745
H     -7.047923    1.157020    0.339345
H      7.244455    0.946517   -1.998459
H      6.284304   -2.501557    0.246443
H     -3.309213   -2.046753    0.211993
H     -5.690129    0.930922   -1.679343
H      5.295068    2.124161   -1.024773
H      4.377969   -1.375240    1.209707
H     -3.140891   -1.691131   -2.200327
H     -4.327628   -0.605657   -2.958284
H      3.678717    2.187742    0.883068
H      3.416957    0.702435    1.815038
H      1.312126   -1.164579    1.215707
H      0.816201   -1.437885   -0.472934
H     -0.940688   -1.188496    1.215597
H     -1.351214    2.720836    2.004127
H     -0.599768    2.333629   -0.931643
