41

C     -3.356276    2.799399    1.455335
C     -0.266202    0.550868   -2.194342
C     -3.221764    2.796017   -0.043534
C      5.549212    0.401547    1.639354
C     -2.923664   -3.203004   -0.238281
C      4.606031    1.375938    1.316837
C      5.233962   -0.928683    1.465311
C     -2.226830   -2.981302   -1.415223
C     -2.770498   -2.283725    0.767520
C      3.363623    1.028376    0.826747
C      3.981647   -1.233303    0.973140
C     -1.415299   -1.887787   -1.572555
C     -1.956573   -1.180644    0.618930
C      3.052185   -0.302794    0.654125
C     -1.256359   -0.962979   -0.571145
C      1.710915   -0.680824    0.117610
C     -1.177745    1.443900   -0.149029
C     -0.415326    0.237314   -0.681844
N      0.887473    0.194751   -0.173493
O      1.416528   -2.015407   -0.042812
O     -0.648160    2.258500    0.642236
O     -2.488031    1.683596   -0.522045
H     -2.408051    3.025448    1.975797
H     -4.059408    3.617977    1.715947
H     -3.837458    1.861232    1.798926
H      0.063581    1.610888   -2.219832
H      0.501553   -0.078506   -2.642654
H     -1.247258    0.505394   -2.670584
H     -4.265352    2.674241   -0.450236
H     -2.817538    3.742458   -0.409990
H      6.538643    0.676602    2.029582
H     -3.558299   -4.065507   -0.125929
H      4.910674    2.394312    1.474336
H      5.966641   -1.681032    1.716029
H     -2.360757   -3.728077   -2.211821
H     -3.324016   -2.463900    1.696512
H      2.658642    1.791894    0.587090
H      3.756628   -2.300108    0.844219
H     -0.892935   -1.752675   -2.499960
H     -1.884636   -0.497276    1.456783
H      0.580495   -2.443118    0.341663
