32

C     -3.662570    2.515479    1.668340
C      3.626492    1.191154    1.608688
C     -2.921598    0.160406    1.270211
C     -2.204022    1.804928   -0.247930
C     -2.239018   -0.800986    0.554909
C     -1.520437    0.839682   -0.963629
C      2.930640   -1.060278   -1.976895
C     -2.919454    1.483758    0.885261
C     -1.516648   -0.487390   -0.586141
C      1.739148   -0.791006   -1.077881
C      2.287385   -0.355450    0.231067
Cl     3.916532    0.404226   -2.179801
N      0.937464   -1.971688   -0.941797
O      1.996847   -1.039113    1.244251
O     -1.413315   -3.015725   -1.335071
O     -0.705285   -1.374805   -2.959398
O      3.095072    0.762505    0.364244
S     -0.656730   -1.720712   -1.484892
H     -4.652496    2.102701    1.996173
H     -3.047439    2.742058    2.560524
H     -3.899290    3.401045    1.054544
H      4.712037    0.908565    1.599118
H      3.100530    0.768774    2.472159
H      3.632251    2.318594    1.657801
H     -3.488569   -0.100679    2.170099
H     -2.196609    2.844411   -0.558639
H     -2.245842   -1.836898    0.863736
H     -0.958072    1.111463   -1.862112
H      3.595098   -1.836166   -1.550905
H      2.607366   -1.392751   -2.994465
H      1.155787    0.047736   -1.511513
H      0.914744   -2.295249    0.029940
