39

C      6.183911   -1.043008   -1.351006
C     -6.024941   -0.757577    0.869781
C     -5.955139   -1.060525   -0.466687
C     -5.049377    0.019446    1.434739
C     -4.910837   -0.584459   -1.227742
C     -3.990925    0.500566    0.657832
C      3.796020    1.671823    0.899070
C     -0.055382   -0.618244    1.443066
C     -2.836235    0.682787   -1.519006
C     -3.927893    0.194938   -0.671783
C      3.074819    0.844043   -0.119875
C      1.391094   -0.266562    1.257533
C      3.992365   -0.253554   -0.582636
C     -1.019691   -0.737816   -0.704812
Cl     5.247242    2.337254    0.066712
N     -0.861555   -0.075653    0.376773
N      1.784784    0.406808    0.249201
O      2.327107   -0.675643    2.192990
O      3.623941   -1.450089   -0.697853
O     -0.424394   -1.969496   -0.860747
O      5.314830    0.011455   -0.909991
O     -1.788959   -0.217835   -1.719692
H      6.240434   -1.108480   -2.438544
H      7.166864   -0.850753   -0.872855
H      5.804433   -1.984982   -0.872559
H     -6.846565   -1.128941    1.480921
H     -6.733576   -1.671711   -0.883715
H     -5.079875    0.275813    2.494883
H     -4.846514   -0.819966   -2.291634
H     -3.263139    1.103699    1.161308
H      3.205067    2.503682    1.293607
H      4.199451    1.004291    1.680755
H     -0.453389   -0.240397    2.397349
H     -0.152390   -1.722398    1.455347
H     -3.278658    0.901312   -2.532814
H     -2.470198    1.678340   -1.156613
H      2.924925    1.482980   -1.060476
H      3.200560   -1.103212    1.959976
H      0.491786   -2.157116   -0.430798
