42

C     -2.915745   -0.659286   -1.941788
C     -0.655743   -0.222713    1.906823
C      4.916978   -0.627500   -2.623584
C      3.710493    1.976383    2.083920
C     -5.132930   -0.698236    1.604889
C      0.817002    0.091319   -1.672823
C      2.149548   -0.160126   -2.014880
C      1.555512    1.151045    0.357004
C     -0.903346    0.995738   -0.165634
C     -2.136995   -1.620406   -1.131662
C      0.525525    0.740398   -0.498171
C      3.144390    0.256697   -1.151266
C      2.873573    0.909331    0.031584
C     -2.874121    0.176850    1.139153
C     -1.521489   -0.122926    0.611996
N     -1.537908   -1.392883   -0.035903
O     -2.076920   -2.938362   -1.678130
O     -3.216600    1.291325    1.591225
O      4.456198    0.017254   -1.472950
O      3.904023    1.313317    0.874629
O     -3.820089   -0.833274    1.137334
H     -2.278184   -0.153544   -2.716121
H     -3.675400   -1.238460   -2.556018
H     -3.435795    0.095814   -1.330078
H     -1.173328   -0.918165    2.606374
H     -0.601907    0.749664    2.414928
H      0.367974   -0.546663    1.664525
H      4.296529   -0.301750   -3.483546
H      4.884302   -1.729438   -2.520645
H      5.959642   -0.280834   -2.820272
H      3.452073    1.244594    2.878470
H      4.662842    2.503182    2.360061
H      2.927783    2.748266    1.938217
H     -5.805109   -1.098655    0.791119
H     -5.424168    0.332953    1.844562
H     -5.259553   -1.404186    2.452572
H      0.072090   -0.242529   -2.364461
H      2.364264   -0.673647   -2.945488
H      1.287649    1.664831    1.279680
H     -0.875699    1.874784    0.553053
H     -1.477364    1.344434   -1.023993
H     -1.529997   -3.614594   -1.166790
