32

C     -4.804829   -1.490133    1.038249
C      5.695607   -0.501783    0.602678
C      5.260667   -0.687016   -0.687972
C      4.899198    0.215905    1.485046
C      4.044891   -0.170685   -1.119927
C      3.709566    0.711212    1.031911
C      1.927419    1.112683   -0.692635
C     -1.036566    0.612900    0.427196
C     -4.490239   -0.038429    1.096737
C      3.252442    0.534682   -0.268826
C     -2.292834   -0.211793    0.112424
C     -2.482315   -0.282695   -1.344576
N     -3.403293    0.481672    0.691670
O     -5.457253    0.803331    1.633278
O     -1.630526   -0.847313   -2.058938
O     -3.592931    0.267863   -1.939636
Se     0.536569   -0.193519   -0.365765
H     -5.758855   -1.642017    0.458823
H     -4.037902   -2.070687    0.503486
H     -5.019931   -1.913381    2.053077
H      6.654150   -0.903285    0.960400
H      5.906027   -1.254590   -1.360027
H      5.236757    0.367258    2.510057
H      3.728730   -0.333099   -2.143402
H      3.049321    1.282856    1.691738
H      1.740309    2.068780   -0.155421
H      1.922192    1.340496   -1.779702
H     -0.888355    0.695807    1.511058
H     -1.219025    1.615802   -0.006173
H     -2.188210   -1.214384    0.586639
H     -5.264974    1.758600    1.930133
H     -3.995808   -0.115038   -2.809692
