24

C     -1.589364   -2.191402   -0.012808
C      3.754862    1.391359   -0.776569
C     -3.341548    1.680695   -0.418513
C      1.510289   -1.153795    0.886466
C     -0.683268   -0.967402    0.148406
C      2.005876    0.073219    0.226198
C     -1.549460    0.209424    0.389514
O      1.249411    1.040182   -0.017459
O     -1.444156    0.868150    1.447729
O      3.348430    0.206706   -0.156462
O     -2.483638    0.575662   -0.575203
O      0.179118   -1.133926    1.206705
H     -1.150820   -2.881855   -0.756482
H     -2.580078   -1.865299   -0.360540
H     -1.658082   -2.703199    0.987352
H      2.979192    1.709817   -1.519131
H      3.857709    2.197323   -0.040718
H      4.698940    1.301231   -1.337700
H     -3.939890    1.771486   -1.344755
H     -2.790666    2.623493   -0.221723
H     -4.038499    1.452517    0.437322
H      1.753345   -2.036886    0.225828
H      2.101124   -1.324277    1.807936
H     -0.188827   -0.843224   -0.819587
