42

C     -4.839142    1.937031    1.538254
C     -2.509256   -2.426624    0.000341
C     -1.700982   -1.611177   -2.119392
C     -3.527822    1.998938    0.784498
C     -2.893400    0.589419    0.791909
C      5.229321    0.952516   -1.627103
C      4.019106    0.920350   -2.280789
C      5.257373    0.579541   -0.319607
C      2.889021    0.519369   -1.608509
C     -1.597956    0.618399    0.055703
C     -1.301462   -1.826464   -0.650848
C      4.097447    0.166492    0.375577
C      2.895091    0.130501   -0.260010
C     -0.777440   -0.610224   -0.022479
C      4.286347   -0.197792    1.759212
C      1.665168   -0.271775    0.350925
O      3.434563   -0.586970    2.576287
O      5.586695   -0.128239    2.333554
O      1.458105   -0.641444    1.494239
O      0.526989   -0.248157   -0.447853
H     -5.693363    1.766037    0.836230
H     -5.007383    2.883761    2.105315
H     -4.844585    1.094828    2.258198
H     -3.407819   -2.153952   -0.577818
H     -2.466242   -3.558963   -0.028019
H     -2.640446   -2.083941    1.042851
H     -2.687889   -1.120453   -2.157968
H     -0.923870   -1.117950   -2.693455
H     -1.835947   -2.640674   -2.532010
H     -3.700099    2.247098   -0.280184
H     -2.806152    2.663069    1.287529
H     -2.701921    0.345629    1.851286
H     -3.645066   -0.125488    0.413626
H      6.129577    1.264924   -2.138416
H      4.008935    1.218292   -3.317456
H      6.210146    0.606984    0.187739
H      1.979021    0.511573   -2.156720
H     -0.989160    1.456917    0.529558
H     -1.831292    1.050451   -0.958045
H     -0.547287   -2.667599   -0.673249
H     -0.595081   -0.896279    1.077962
H      5.798156   -0.607954    3.199136
