42

C     -2.814431    3.239888   -1.767036
C      0.037075   -2.610406    1.784255
C     -2.134856   -3.074836    0.813063
C     -0.186482   -2.833563   -0.585306
C     -2.754573    1.746634   -1.641033
C     -1.812488    1.303277   -0.523665
C      4.921449    1.814643    0.149025
C      4.307138    2.234515    1.300055
C      4.215554    0.955162   -0.684088
C      3.031465    1.825727    1.632942
C      2.943478    0.546445   -0.353878
C     -1.865794   -0.217935   -0.528899
C      2.323588    0.967487    0.803363
C     -0.994285   -0.816152    0.511811
C      0.976124    0.530180    1.146021
C     -0.922329   -2.268395    0.650316
O      0.419650    0.911281    2.189652
O      0.318496   -0.311535    0.304198
H     -2.073106    3.769350   -1.143991
H     -3.844172    3.618707   -1.512311
H     -2.674402    3.491527   -2.842555
H      0.302125   -3.685084    1.699914
H     -0.514596   -2.482903    2.741241
H      0.949488   -1.990167    1.739895
H     -2.303515   -3.842422    0.003672
H     -3.095375   -2.541486    0.881454
H     -2.117101   -3.711278    1.751186
H      0.372200   -3.749802   -0.323940
H      0.408946   -2.061543   -1.082768
H     -0.983437   -3.152695   -1.315162
H     -2.385949    1.258708   -2.571414
H     -3.776072    1.358582   -1.450038
H     -2.205443    1.706986    0.432205
H     -0.813396    1.699823   -0.707112
H      5.922572    2.112691   -0.148802
H      4.863633    2.905349    1.946019
H      4.698459    0.622036   -1.593837
H      2.595505    2.188101    2.553259
H      2.400278   -0.124758   -1.010769
H     -2.916858   -0.467723   -0.505218
H     -1.506795   -0.499035   -1.560240
H     -1.311767   -0.365382    1.481859
