26

C      0.189055   -1.806085   -1.273641
C      3.100265    1.335073   -0.417293
C     -3.157005    1.241376    0.912924
C     -3.170426    0.418385   -0.194282
C     -2.044082    1.260645    1.742591
C     -2.067093   -0.368986   -0.447245
C     -0.942646    0.470384    1.484405
C      0.202678   -1.193100    0.093507
C      1.814233    0.625584   -0.568288
C     -0.967499   -0.346234    0.377443
N      2.358094   -0.926843    1.191627
N      1.452859   -0.492017    0.229956
O      1.034388    1.080791   -1.470517
O      3.324606   -1.674242    0.937055
H      1.188055   -2.292457   -1.419552
H     -0.565381   -2.571302   -1.432786
H      0.095943   -1.002832   -2.033848
H      2.983891    2.228927    0.261141
H      3.897213    0.650987   -0.017492
H      3.449928    1.664468   -1.417035
H     -4.016286    1.870168    1.130746
H     -4.051215    0.403825   -0.849931
H     -2.066568    1.921598    2.607786
H     -2.118797   -1.010310   -1.339842
H     -0.106070    0.528150    2.165758
H      0.181860   -2.015953    0.833972
