35

C      4.144496   -0.692927   -0.828311
C     -1.741700    3.673133   -0.629497
C     -2.795408   -0.537255    0.010198
C     -0.906569   -1.455012   -1.198397
C     -1.322553   -2.107769    1.125699
C      3.208339   -0.310984    0.262267
C      1.748260   -0.269345   -0.229975
C      0.868327    0.117251    0.904080
C     -1.494270    2.498260    0.241534
C     -0.579049    0.234893    0.646727
C     -1.315925   -0.961281    0.169495
O     -1.918395    2.533719    1.424442
O     -0.817843    1.371415   -0.197420
H      4.822468   -1.526283   -0.486731
H      3.662301   -0.948889   -1.785784
H      4.828758    0.164622   -1.016948
H     -1.526858    4.611720   -0.111603
H     -1.061941    3.579741   -1.506172
H     -2.790870    3.653352   -0.953405
H     -3.060403   -0.079287    0.979298
H     -2.853447    0.175650   -0.832577
H     -3.428203   -1.399679   -0.218190
H     -0.422319   -2.462095   -1.144689
H     -0.355514   -0.721026   -1.789666
H     -1.840164   -1.665471   -1.806922
H     -0.367357   -2.666256    1.170107
H     -2.123715   -2.816893    0.786644
H     -1.643668   -1.738215    2.115306
H      3.219295   -1.100286    1.044455
H      3.482696    0.641584    0.748064
H      1.538278   -1.334192   -0.496751
H      1.646250    0.382818   -1.092714
H      1.038616   -0.507951    1.818134
H      1.210668    1.144854    1.241484
H     -1.052581    0.518083    1.637815
