36

C     -3.330586    2.869391   -0.970025
C      4.416795   -0.993673    0.101083
C     -1.896491   -3.183186    1.028804
C      4.108669    0.226594    0.661823
C      3.504960   -1.606010   -0.699419
C     -1.500110   -2.812519   -0.234040
C     -1.808053   -2.294037    2.061829
C      2.884356    0.807143    0.404359
C      2.261416   -1.002141   -0.953014
C     -1.011491   -1.515072   -0.420390
C     -1.326221   -1.028651    1.855748
C      0.670429    0.931960   -0.625117
C     -2.297878    1.811357   -0.895865
C      1.918098    0.208333   -0.414378
C     -0.909313   -0.603134    0.586269
C     -0.389681    0.762279    0.399304
N     -1.613968    2.740621    1.206767
N     -1.433781    1.755797    0.217144
O     -2.184360    0.968429   -1.808063
O     -0.778865    3.618830    1.415696
H     -2.861476    3.738712   -1.478981
H     -4.214961    2.586993   -1.554100
H     -3.602806    3.238745    0.053815
H      5.378085   -1.453471    0.301210
H     -2.282319   -4.181097    1.219333
H      4.821761    0.740903    1.308203
H      3.732866   -2.553962   -1.140616
H     -1.557902   -3.492974   -1.071188
H     -2.131085   -2.613086    3.062844
H      2.625360    1.768775    0.838470
H      1.588479   -1.516735   -1.596260
H     -0.713271   -1.252394   -1.424679
H     -1.249445   -0.313269    2.660398
H      0.839892    2.030686   -0.835910
H      0.236977    0.570088   -1.608898
H      0.105920    1.039776    1.405336
