39

C      3.418048    2.082290   -1.810667
C     -4.994470    2.339677   -0.605699
C      2.544412   -0.663032    1.555234
C     -3.639909   -0.499791    2.404662
C     -0.110447   -0.964262   -1.593281
C     -1.292103   -0.372078   -1.848434
C     -0.650154   -1.360652    0.674650
C      1.605981   -2.071841   -0.277381
C      3.976338   -1.683740   -0.162663
C      3.640126    0.869364   -0.930386
C     -3.762294    1.557340   -0.381240
C      0.272359   -1.487556   -0.331499
C     -2.216278   -0.247193   -0.810599
C     -1.917959   -0.730707    0.444207
C      2.694371   -1.119368    0.125860
N      5.081381   -2.174532   -0.389547
N      2.637675    0.109857   -0.718272
O      4.871878    0.628896   -0.407305
O     -2.949513    1.960325    0.480910
O     -2.786953   -0.608470    1.413175
O     -3.434322    0.382175   -1.076971
H      2.358188    2.360937   -1.716112
H      3.705876    1.764845   -2.826178
H      4.075385    2.915249   -1.534709
H     -5.793955    2.062006    0.080562
H     -5.316147    2.317976   -1.690129
H     -4.736316    3.418196   -0.380157
H      3.079890    0.293032    1.755195
H      1.476905   -0.575162    1.795608
H      3.047189   -1.385430    2.248421
H     -3.324097    0.084279    3.313089
H     -4.580667    0.096886    2.094720
H     -4.111754   -1.434510    2.812457
H      0.599255   -1.047482   -2.417069
H     -1.605792    0.029120   -2.813196
H     -0.481908   -1.720985    1.656942
H      1.642306   -2.876023    0.536055
H      1.931427   -2.636271   -1.168540
H      5.046046    0.386637    0.556629
