30

C     -3.332552   -1.715751   -0.078641
C      0.559887    3.135091   -0.242153
C      2.403181   -2.393443    1.032122
C     -2.435053   -0.498000    0.012783
C      1.319019    1.850267    0.083192
C     -1.366998   -0.625940   -1.026450
C     -0.396304    0.498019   -1.068181
C      2.163644   -0.969176    0.529395
C      0.365417    0.688530    0.235947
N      1.026467   -0.482553    0.561369
O      3.231082   -0.220997    0.034959
H     -4.239056   -1.528394   -0.695794
H     -2.809597   -2.574961   -0.559977
H     -3.640230   -2.075368    0.925505
H      0.390729    3.142656   -1.338152
H     -0.403749    3.175004    0.294515
H      1.186514    4.001944    0.012894
H      2.615181   -2.293626    2.102309
H      3.240200   -2.811639    0.485392
H      1.482293   -2.989198    0.875698
H     -3.074919    0.391330   -0.098802
H     -2.013119   -0.476408    1.050533
H      1.842503    2.046863    1.036635
H      1.968116    1.633050   -0.763677
H     -1.868473   -0.684567   -2.014626
H     -0.867530   -1.601690   -0.878120
H      0.325814    0.314308   -1.887466
H     -0.908077    1.453135   -1.299118
H     -0.357157    1.002287    1.046942
H      3.592768    0.609226    0.530149
