36

C     -3.198144    3.131460    0.431323
C      4.407814   -1.299659    0.026925
C     -2.126422   -3.000090   -0.774700
C      4.200971   -0.131685   -0.670054
C      3.447683   -1.726590    0.891819
C     -1.959116   -2.212286   -1.895986
C     -1.669252   -2.550792    0.442230
C      3.043370    0.579252   -0.486932
C      2.282802   -0.992857    1.063604
C     -1.335004   -0.991821   -1.762526
C     -1.044923   -1.330296    0.578812
C      0.824141    1.010846    0.543180
C     -2.170036    2.068271    0.511983
C      2.029145    0.171141    0.396227
C     -0.869113   -0.537626   -0.515234
C     -0.248042    0.780335   -0.456815
N     -1.330176    2.608651   -1.674403
N     -1.246966    1.815176   -0.537340
O     -2.116779    1.366021    1.551059
O     -2.124643    2.278078   -2.572491
H     -4.156553    2.858861    0.885922
H     -3.379803    3.381792   -0.635028
H     -2.825307    4.028465    0.995803
H      5.329568   -1.842796   -0.135288
H     -2.610574   -3.960475   -0.845630
H      4.940141    0.244938   -1.369234
H      3.595077   -2.636283    1.442765
H     -2.317243   -2.558484   -2.862105
H     -1.802782   -3.177017    1.330821
H      2.867943    1.503131   -1.031290
H      1.563004   -1.370924    1.769695
H     -1.211776   -0.383721   -2.658394
H     -0.708862   -0.992526    1.543192
H      0.485686    0.915256    1.596946
H      1.113647    2.098670    0.448379
H      0.320525    0.855583   -1.470999
