31

C     -1.064500    0.599678   -0.038996
C      2.898682    2.603598    1.943486
C     -1.843834   -2.052625   -0.007217
C     -2.696882   -3.189278   -0.414900
C     -0.780153   -1.638393   -0.997514
C      1.168113   -0.062442   -0.968572
C     -3.449508   -2.969463   -1.638542
C      1.984970    0.916043   -0.182053
C     -0.062653   -0.469598   -0.298697
C      1.772507    2.915488    1.052480
N     -4.044255   -2.807777   -2.614097
N      1.379099    2.159283    0.115592
O      1.085993    4.117604    1.245505
H     -1.914916    0.511115   -0.791596
H     -0.671558    1.592212   -0.112686
H     -1.586122    0.440243    0.956623
H      2.879278    1.565896    2.338278
H      3.881308    2.742010    1.439799
H      2.879962    3.313487    2.810800
H     -2.523932   -1.173518    0.200907
H     -1.351567   -2.289491    0.956593
H     -2.097430   -4.127990   -0.553431
H     -3.403742   -3.434358    0.427620
H     -0.011193   -2.421898   -1.122699
H     -1.166963   -1.249799   -1.934994
H      0.954309    0.336492   -1.998898
H      1.794092   -0.977740   -1.159915
H      2.280643    0.443181    0.811333
H      2.993882    1.053790   -0.683307
H      0.220497   -0.949262    0.709119
H      0.495872    4.503512    0.509977
