46

C     -2.717500    1.502917   -1.931554
C      3.195948   -2.781835   -0.810542
C      2.037596    4.132346   -0.547899
C     -2.311685   -3.673611    1.619966
C      2.230842   -2.315930   -1.674728
C      3.248041   -2.229272    0.450003
C      2.184732    3.653725    0.742641
C      1.393388    3.366438   -1.498656
C     -2.118059   -2.559682    2.414517
C     -2.044635   -3.545014    0.283070
C      1.345454   -1.317268   -1.267217
C      2.369224   -1.228546    0.874398
C      1.673387    2.419167    1.017408
C      0.887650    2.116284   -1.179343
C     -1.672372   -1.359113    1.887445
C     -1.602702   -2.359145   -0.248688
C     -2.665699    1.846398   -0.506070
C      1.413614   -0.777427   -0.002714
C      1.022750    1.620017    0.099490
C     -1.404088   -1.226789    0.548176
C      0.479788    0.277026    0.421206
C     -0.936466    0.060766   -0.027985
N     -1.843670    1.550335    1.702849
N     -1.818787    1.141458    0.364121
O     -3.378990    2.765534   -0.079897
O     -1.813275    2.776268    1.926666
H     -2.731662    0.412425   -2.138940
H     -1.882770    2.006418   -2.502936
H     -3.638942    1.994513   -2.364369
H      3.899423   -3.569852   -1.122849
H      2.437587    5.109281   -0.781029
H     -2.661056   -4.581741    2.090331
H      2.189618   -2.747218   -2.659692
H      3.997251   -2.586484    1.130264
H      2.691233    4.238086    1.519209
H      1.281460    3.742815   -2.500572
H     -2.314028   -2.618279    3.457046
H     -2.188436   -4.401207   -0.356208
H      0.617847   -1.007159   -2.005234
H      2.486791   -0.854541    1.884808
H      1.788249    2.040883    2.032504
H      0.398793    1.572962   -1.975649
H     -1.547022   -0.553435    2.591065
H     -1.390045   -2.240847   -1.298883
H      0.463491    0.240515    1.554824
H     -1.052272   -0.052182   -1.130352
