32

C     -2.340833    0.456875    1.616501
C     -4.316342    1.441605   -0.749109
C      4.352197    0.594860    0.191022
C      0.387346   -0.343926    1.261761
C      0.121414   -0.245929   -1.124762
C      1.658164   -0.862784    1.075130
C      1.388167   -0.763123   -1.307328
C     -1.740533    0.519469    0.251260
C     -3.658784    0.176831   -1.132509
C      4.493922   -0.843567   -0.166704
C     -0.374940   -0.037950    0.167015
C      2.149724   -1.068722   -0.197425
N     -2.541565   -0.216763   -0.694632
N      3.470653   -1.607797   -0.345032
O     -4.320791   -0.655828   -2.053425
O      5.755402   -1.366581   -0.309700
H     -1.748224    0.927109    2.403263
H     -2.573456   -0.586615    1.911787
H     -3.313544    0.990140    1.595648
H     -4.823782    1.832426   -1.670087
H     -5.101997    1.286783    0.037233
H     -3.555674    2.177848   -0.471251
H      4.265185    0.649315    1.292203
H      5.256505    1.136685   -0.160158
H      3.438842    1.011839   -0.274016
H     -0.041877   -0.164977    2.222157
H     -0.485620   -0.002244   -1.994877
H      2.232813   -1.093201    1.954939
H      1.755923   -0.917455   -2.315028
H     -1.668759    1.565214   -0.108363
H     -4.038506   -1.620639   -2.108652
H      5.918972   -2.368898   -0.186416
