46

C     -2.347110    0.384752   -2.902106
C      2.077895   -2.200634    2.965396
C      3.316649    1.011373   -3.353893
C     -3.171004    1.157614    3.096649
C      1.566584   -0.969191    3.283591
C      2.106583   -2.568591    1.642403
C      2.419375   -0.026018   -3.387162
C      3.348632    1.862243   -2.269161
C     -2.981269    2.136442    2.157618
C     -2.604630   -0.085501    2.892491
C      1.112389   -0.171712    2.274788
C      1.644246   -1.751726    0.634854
C      1.539433   -0.214480   -2.316273
C      2.461363    1.649079   -1.220317
C     -2.234705    1.843368    1.048615
C     -1.855650   -0.371382    1.775053
C     -2.023328   -0.875374   -2.182581
C      1.126771   -0.511185    0.937640
C      1.538629    0.612176   -1.214842
C     -1.650791    0.588285    0.821193
C      0.628931    0.429112   -0.090292
C     -0.831583    0.321647   -0.410227
N     -1.029932   -2.109451   -0.382767
N     -1.287735   -0.899763   -0.973128
O     -2.440267   -1.949835   -2.704993
O     -1.802102   -3.069701   -0.554792
H     -2.856679    1.041234   -2.150371
H     -3.055726    0.210930   -3.731640
H     -1.416760    0.806120   -3.291333
H      2.438587   -2.833083    3.772604
H      3.995965    1.139870   -4.203240
H     -3.761415    1.390098    3.973012
H      1.513397   -0.614542    4.303806
H      2.524182   -3.559668    1.446514
H      2.333931   -0.731670   -4.198272
H      4.065515    2.687384   -2.247371
H     -3.396749    3.144818    2.247434
H     -2.785862   -0.823014    3.666283
H      0.704819    0.813759    2.547774
H      1.709351   -2.103934   -0.382826
H      0.828709   -1.022724   -2.317788
H      2.513880    2.343903   -0.374207
H     -2.065819    2.590044    0.292613
H     -1.455645   -1.358370    1.711287
H      0.668872    1.455937    0.449396
H     -1.129925    1.201364   -1.081430
