52

C     -5.170492    0.366582   -0.880931
C     -3.061434    1.408954   -0.180813
C      4.521257    2.822268    1.875967
C      3.764909    2.047972    2.720964
C      5.435059    2.163151    1.091145
C      3.920860    0.648836    2.777142
C      5.589416    0.801861    1.142951
C     -0.548647   -1.346533    0.546650
C     -0.789881   -1.829745   -0.877956
C      1.416119   -2.188732    2.402987
C      2.509954   -2.403259    3.445688
C     -3.942713    1.796237   -2.494549
C      4.821908   -0.013989    2.004339
C      0.747523   -0.697667    0.690530
C     -3.111290   -0.424534   -1.839612
C     -1.753520   -0.177340   -2.298513
C      5.012335   -1.444665    2.006503
C     -3.775120    0.831960   -1.342675
N      1.611969   -1.098217    1.533810
N     -0.760961   -0.811215   -1.853915
O     -4.574389    1.158323   -3.543306
O      1.053021    0.389325   -0.111351
O     -3.897069   -1.053449   -2.821306
O     -1.503377    0.795816   -3.278318
O      6.039029   -1.880120    1.271502
S      4.116595   -2.677576    2.803316
H     -5.563487    1.201430   -0.265963
H     -5.085064   -0.528069   -0.254983
H     -5.801244    0.273519   -1.765845
H     -3.291816    0.899792    0.777299
H     -3.332893    2.487647   -0.002295
H     -1.945293    1.395787   -0.275403
H      4.385928    3.898200    1.847246
H      3.026032    2.539157    3.362440
H      6.047512    2.740593    0.414827
H      3.301564    0.105562    3.463995
H      6.309756    0.274035    0.524116
H     -1.359887   -0.651978    0.826134
H     -0.675679   -2.224209    1.244877
H     -1.701169   -2.468148   -0.847688
H      0.024224   -2.562543   -1.168207
H      0.416063   -2.149824    2.922260
H      1.386993   -3.128385    1.807176
H      2.135159   -3.413486    3.929966
H      2.436211   -1.698297    4.282008
H     -3.029736    2.288430   -2.810521
H     -4.592084    2.646822   -2.103863
H     -3.132936   -1.130089   -0.976219
H     -5.557188    1.370661   -3.560068
H      2.022906    0.550045   -0.414326
H     -3.544059   -0.964291   -3.719761
H     -0.550871    1.063395   -3.527263
