52

C     -5.325132    0.041915    1.220169
C     -4.213035   -1.801055   -0.029644
C      6.377542   -0.534130    2.537041
C      5.664191    0.397382    1.811086
C      6.579471   -1.766268    1.983292
C      5.176324    0.046114    0.539778
C      6.101009   -2.096749    0.747928
C     -0.312630    1.556513   -2.436289
C     -1.774673    1.354941   -2.053570
C      1.942823    0.525535   -0.930080
C      3.026485    0.710916   -1.985719
C     -4.306356   -1.843272    2.399913
C      5.371366   -1.180547   -0.022628
C      0.365242    2.241037   -1.332420
C     -2.886754   -0.154200    1.215156
C     -2.829753    0.700663    0.006906
C      4.882817   -1.587713   -1.296851
C     -4.180964   -0.928439    1.214387
N      1.344858    1.800954   -0.673144
N     -1.889566    0.555195   -0.854005
O     -4.283024   -1.141850    3.607919
O     -0.140090    3.513120   -0.987969
O     -2.827558    0.709085    2.319583
O     -3.802382    1.662248   -0.188000
O      5.269381   -2.782231   -1.688021
S      3.860857   -0.763530   -2.402456
H     -5.613411    0.228380    0.150369
H     -6.187358   -0.359301    1.793133
H     -5.059292    1.016971    1.671653
H     -4.333094   -1.138707   -0.930540
H     -3.322382   -2.430094   -0.095252
H     -5.106602   -2.462005   -0.037307
H      6.755471   -0.273761    3.512842
H      5.496121    1.370510    2.230666
H      7.139309   -2.529519    2.527891
H      4.638504    0.810601    0.014325
H      6.288329   -3.091801    0.351285
H      0.085001    0.583098   -2.709498
H     -0.298402    2.220507   -3.345168
H     -2.249625    0.823354   -2.918749
H     -2.244536    2.334914   -1.968654
H      2.384045    0.137074   -0.015959
H      1.198985   -0.242129   -1.281667
H      3.619247    1.611505   -1.752343
H      2.413295    1.033978   -2.917366
H     -3.600729   -2.682825    2.378360
H     -5.336489   -2.293953    2.339627
H     -2.003318   -0.815327    1.303933
H     -5.163169   -0.699754    3.709485
H      0.442809    4.093116   -0.407934
H     -3.074053    1.637241    2.064173
H     -4.059105    1.882295   -1.158366
