34

C     -1.651645    0.086711   -1.217835
C     -3.064732    1.101346    0.477154
C      1.828259    0.369704    0.399181
C      3.150177    0.847838   -0.201583
C     -2.738207   -1.309524    0.490944
C     -0.910525    0.151110    1.186310
C     -0.190936    1.413720    1.086977
C     -2.049106    0.008813    0.211009
N      3.327724   -1.515262   -1.764340
N      1.026590    1.496651    0.736139
O     -3.121118   -1.399015    1.841975
O     -0.071571   -0.914497    1.269801
O     -0.788661    2.654365    1.371691
O      5.444157   -0.040169   -1.198772
O      4.481288   -1.314658    0.633865
S      4.152852   -0.548311   -0.623274
H     -1.294700   -0.872608   -1.645823
H     -2.579615    0.338528   -1.805355
H     -0.954522    0.916479   -1.386666
H     -4.068830    0.694942    0.232238
H     -3.090708    1.413928    1.531730
H     -2.922121    1.965852   -0.227013
H      1.390665   -0.294359   -0.377237
H      2.122529   -0.269668    1.262154
H      3.695194    1.487389    0.503919
H      2.917818    1.413196   -1.129506
H     -3.708650   -1.384319   -0.078951
H     -2.152758   -2.184294    0.186845
H     -1.435296    0.188567    2.200635
H      3.973183   -2.054546   -2.385904
H      2.605214   -2.118192   -1.332199
H     -2.680572   -2.175317    2.269634
H     -0.247511   -1.676194    0.700422
H     -0.393866    3.521792    1.031295
