39

C     -3.967462    1.479761    0.477317
C      5.425808    1.451116    0.275711
C     -3.993781    0.128313    1.066075
C     -2.735289    1.940562   -0.174139
C      4.263918    1.830452   -0.357733
C      5.401433    0.316651    1.048823
C     -2.936568   -0.816912    0.651088
C     -1.771584    0.867294   -0.599127
C      3.089143    1.081145   -0.218389
C      4.232583   -0.430912    1.188862
C     -0.774912   -1.822886   -1.156716
C     -1.601556   -0.146831    0.510557
C      3.070913   -0.052591    0.556188
C     -0.507319   -1.124108    0.147889
C      1.836038   -0.806305    0.679477
N      0.762349   -0.457879    0.095828
O      0.226967   -2.757153   -1.387030
O      1.802554   -1.961841    1.463970
H     -4.268459    2.244160    1.255504
H     -4.812090    1.547613   -0.273432
H      6.322425    2.057309    0.145756
H     -4.986428   -0.380459    0.883421
H     -3.955378    0.217430    2.192857
H     -2.945083    2.545464   -1.106279
H     -2.144750    2.647561    0.470988
H      4.274024    2.723967   -0.969548
H      6.328555    0.031220    1.542397
H     -2.901156   -1.658850    1.393256
H     -3.211073   -1.208185   -0.372914
H     -0.795778    1.318721   -0.841907
H     -2.199747    0.365865   -1.479551
H      2.230508    1.459137   -0.753734
H      4.293980   -1.305678    1.810678
H     -0.795853   -1.034707   -1.955837
H     -1.730262   -2.339994   -1.200072
H     -1.328684    0.403120    1.432717
H     -0.501513   -1.891606    0.948705
H     -0.000311   -3.654609   -1.055599
H      1.303839   -2.805356    1.140496
