59

C     -2.867804   -1.680066   -1.271942
C     -3.218473    3.253100   -0.339013
C     -0.326870   -0.144160    2.911475
C      4.759118    3.965328    0.233074
C      1.034409   -5.599793   -0.495966
C      1.924359   -4.789345   -1.193463
C     -5.729446    0.758704   -1.487237
C     -4.964436   -0.379774   -1.523682
C     -5.140665    1.940112   -1.096758
C      0.096452   -5.034078    0.315234
C      1.827349   -3.421928   -1.039410
C     -0.823637   -2.842676    1.198729
C     -1.094880    0.848424    0.773573
C      2.878280    0.270823    0.473836
C     -3.615700   -0.387058   -1.181150
C     -3.811868    1.950306   -0.755483
C     -1.105424   -0.380813    1.583996
C      3.316165    3.798349   -0.021447
C     -0.006188   -3.661808    0.474253
C      0.877431   -2.869179   -0.218937
C      3.628841    1.438816   -0.111716
C     -3.032332    0.783210   -0.793714
C      0.560773   -1.550981    0.115378
C      4.146508    1.147827   -1.465456
N      2.824650    2.627446   -0.175795
N     -0.464599   -1.535552    0.969858
O      2.504155    4.908082   -0.091648
O      3.870008    1.882325   -2.452153
O      4.960924    0.054504   -1.718786
O     -1.730300    0.910452   -0.432761
S      1.454951   -0.182627   -0.553392
H     -3.276742   -2.160740   -2.212471
H     -3.116895   -2.258628   -0.385338
H     -1.817277   -1.468609   -1.465128
H     -2.120407    3.277718   -0.489683
H     -3.528641    3.479715    0.682412
H     -3.673288    4.028900   -0.996869
H     -0.753011   -0.741151    3.725468
H     -0.286727    0.933048    3.133218
H      0.721151   -0.477049    2.762511
H      5.052734    5.021518    0.051774
H      4.961856    3.665842    1.298653
H      5.372424    3.270892   -0.387217
H      1.107100   -6.683714   -0.614555
H      2.648320   -5.282400   -1.822540
H     -6.781743    0.762434   -1.754840
H     -5.436665   -1.310004   -1.833328
H     -5.758263    2.835095   -1.072411
H     -0.590668   -5.677226    0.852768
H      2.521480   -2.806336   -1.584337
H     -1.613079   -3.161285    1.838862
H     -1.631500    1.636847    1.434680
H     -0.067486    1.303048    0.673891
H      2.470937    0.600092    1.458559
H      3.503031   -0.607121    0.622096
H     -2.109037   -0.695369    1.929433
H      4.511381    1.617654    0.557087
H      1.501254    4.841250    0.062546
H      5.458007   -0.022392   -2.600193
