39

C     -4.041543    1.045336   -0.136796
C      5.478764    1.041143   -0.623810
C     -3.639835    0.379756   -1.435941
C     -2.903583    1.524671    0.679482
C      5.049324    1.311000    0.671972
C      4.624288    0.395788   -1.483673
C     -2.760971   -0.805397   -1.006784
C     -1.654291    0.729059    0.648217
C      3.778094    0.912541    1.026010
C      3.347925    0.007600   -1.093647
C     -0.905186   -2.220821    0.780924
C     -1.463165   -0.157317   -0.523267
C      2.904955    0.265365    0.183058
C     -0.449552   -1.256811   -0.255973
C      1.553052   -0.129994    0.642041
N      0.820558   -0.702565   -0.153698
O     -0.023226   -3.305189    0.798107
O      1.193425    0.166931    1.936573
H     -4.612290    0.265929    0.439369
H     -4.737741    1.883573   -0.330362
H      6.461848    1.325651   -0.966379
H     -4.537932    0.055216   -1.954794
H     -2.989964    1.067452   -2.019060
H     -2.740754    2.613226    0.424175
H     -3.259436    1.570446    1.751585
H      5.720348    1.821297    1.357390
H      4.961820    0.186815   -2.492997
H     -3.299921   -1.314398   -0.169323
H     -2.537846   -1.449107   -1.855150
H     -0.808562    1.480378    0.623149
H     -1.526875    0.151002    1.573869
H      3.456978    1.128027    2.034777
H      2.714422   -0.491776   -1.791968
H     -1.882221   -2.639567    0.427914
H     -1.079170   -1.852171    1.780336
H     -1.076928    0.423574   -1.386021
H     -0.476375   -1.864713   -1.232606
H      0.736382   -3.149731    1.438124
H      0.605184   -0.412222    2.514530
