59

C      3.962188    3.106184    0.307816
C      4.070756   -1.890248    0.475683
C      0.668185    0.562138   -3.107323
C     -5.976925    0.574307    2.681881
C     -1.452947   -4.050264    1.274749
C     -2.282362   -3.097712    1.846670
C      6.638529    0.729549    1.308838
C      5.979526    1.917084    1.045901
C      6.030742   -0.474358    1.127128
C     -0.492835   -3.693258    0.369576
C     -2.103289   -1.792105    1.471469
C      0.541034   -1.736457   -0.864394
C      2.478393    0.574179   -1.465405
C     -2.822874    1.772905   -0.698641
C      4.681101    1.817421    0.592173
C      4.716771   -0.566267    0.667690
C      0.984500    0.603602   -1.641753
C     -5.543076    0.384958    1.283878
C     -0.314976   -2.388607   -0.004263
C     -1.135159   -1.427640    0.558126
C     -4.033288    0.873214   -0.540242
C      4.058027    0.600559    0.405215
C     -0.728561   -0.237460    0.004824
C     -5.100189    1.306047   -1.467984
N     -4.519297    1.005097    0.814197
N      0.288582   -0.400886   -0.862382
O     -6.231495   -0.470472    0.436842
O     -6.192729    1.714520   -1.013675
O     -4.861900    1.248644   -2.838704
O      2.747360    0.610041   -0.056261
S     -1.458429    1.343707    0.381490
H      2.878625    2.874526    0.317830
H      4.126084    3.840923    1.121233
H      4.294954    3.501398   -0.677687
H      3.037970   -1.902667    0.826791
H      4.097147   -2.133416   -0.610262
H      4.655039   -2.675916    1.025336
H     -0.416413    0.550922   -3.313553
H      1.220890   -0.269908   -3.583083
H      1.069548    1.497820   -3.551416
H     -5.109031    0.468926    3.373814
H     -6.716892   -0.202208    2.974582
H     -6.451642    1.588974    2.801085
H     -1.591992   -5.095903    1.571325
H     -3.033451   -3.408063    2.559739
H      7.660617    0.827615    1.665644
H      6.456368    2.875076    1.188430
H      6.558383   -1.403645    1.336741
H      0.154748   -4.448098   -0.075156
H     -2.755246   -1.043137    1.921246
H      1.313093   -2.214671   -1.463925
H      2.926301    1.489979   -1.885993
H      2.932841   -0.279900   -1.964503
H     -2.525852    1.797768   -1.777020
H     -3.113012    2.824304   -0.457037
H      0.577820    1.598690   -1.287366
H     -3.773908   -0.168880   -0.795661
H     -5.755815   -0.972214   -0.305645
H     -5.312536    1.963285   -3.428606
