46

C     -0.043834    1.568302   -2.118867
C     -3.243115   -3.442001    0.036460
C     -3.683943    3.673864    0.748258
C     -1.980202   -3.366949   -0.538070
C     -2.448572    3.823885    0.201849
C      4.979331   -0.265925    2.448576
C      3.773676    0.356675    2.650959
C     -3.938210   -2.317907    0.399195
C     -4.202299    2.408898    0.834983
C     -1.435045   -2.094922   -0.736084
C     -1.730423    2.725303   -0.258737
C      5.244283   -0.901875    1.280146
C      2.844000    0.312377    1.629308
C     -4.109297    0.036187    0.584953
C     -0.283685    0.349930   -1.227899
C     -3.374530   -1.054054    0.191621
C     -3.516997    1.282880    0.384771
C     -2.116462   -0.961293   -0.380508
C     -2.264955    1.448319   -0.173061
C      4.281085   -0.938216    0.241862
C      3.077162   -0.333869    0.411470
C     -1.558513    0.333497   -0.569222
C      4.719198   -1.600097   -0.962600
C      1.998544   -0.383529   -0.540563
O      4.047134   -1.680057   -1.989656
O      5.995330   -2.207296   -1.015239
O      1.945130   -1.043208   -1.598916
O      0.832427    0.370567   -0.335915
H     -0.941567    2.063333   -2.473649
H      0.835254    2.167316   -1.838584
H      0.355327    1.154372   -3.153427
H     -3.659524   -4.433103    0.190089
H     -4.270807    4.540846    1.117191
H     -1.429935   -4.262517   -0.823048
H     -1.983285    4.790371    0.103614
H      5.730331   -0.240870    3.249632
H      3.580423    0.855782    3.592284
H     -4.939489   -2.395754    0.856327
H     -5.206606    2.268583    1.282186
H     -0.461471   -2.099162   -1.162880
H     -0.725346    2.884852   -0.587660
H      6.192196   -1.371504    1.169532
H      1.890887    0.796663    1.760437
H     -5.089157   -0.020030    1.027421
H     -0.109220   -0.502509   -1.950435
H      6.424771   -2.296158   -1.958100
