43

C      1.179927    0.621955    1.796898
C      5.722101   -0.418691   -0.033204
C      5.146734    0.786170    0.321515
C      4.935731   -1.413393   -0.606750
C     -2.065080    1.320038   -1.201801
C     -2.338306   -1.706091    0.455743
C      3.807394    0.985137    0.103219
C      3.579952   -1.181285   -0.815439
C     -3.283889    0.479742   -1.206453
C     -3.746882   -1.227911    0.567838
C     -1.184808    1.236163   -0.003307
C     -1.408203   -0.783051    1.214891
C      1.561794    0.307561   -0.670787
C      0.757539   -0.100030    0.545306
C      3.011916    0.015617   -0.462172
C     -3.918216    0.209554    0.113533
N     -0.628704   -0.044578    0.246934
O     -5.318925    0.422432    0.072025
H      0.464348    0.352996    2.592795
H      1.301216    1.700523    1.666884
H      2.168667    0.217213    2.095731
H      6.783100   -0.572682    0.141531
H      5.760846    1.576864    0.775209
H      5.396277   -2.353068   -0.880170
H     -1.439461    1.041966   -2.082458
H     -2.351751    2.386918   -1.326594
H     -1.998933   -1.831172   -0.595909
H     -2.283679   -2.713394    0.917504
H      3.380805    1.955083    0.396885
H      2.940967   -1.933111   -1.259253
H     -3.096155   -0.457183   -1.799236
H     -4.060044    1.018050   -1.831664
H     -4.053620   -1.280443    1.626355
H     -4.420344   -1.898575   -0.017770
H     -1.676337    1.598449    0.936359
H     -0.372885    2.006768   -0.165564
H     -0.761446   -1.379279    1.908770
H     -1.968281   -0.066604    1.849901
H      1.421250    1.373227   -0.882835
H      1.210121   -0.346103   -1.504107
H      1.047071   -1.178549    0.725391
H     -3.571429    0.875806    0.929730
H     -5.630377    0.396958    1.009722
