46

C     -0.651851   -0.549453   -2.857888
C     -2.591362   -3.541169    1.331512
C     -3.675707    3.542881    0.237599
C     -1.564149   -3.495453    0.385129
C     -2.657493    3.510465   -0.680255
C      5.936113    0.670145    0.419395
C      5.405740    1.684600   -0.344410
C     -3.246562   -2.367645    1.625988
C     -3.976925    2.326356    0.871743
C     -1.223540   -2.306465   -0.229118
C     -1.956857    2.358233   -0.979701
C      5.089122   -0.341531    0.809342
C      4.072153    1.623934   -0.669586
C     -3.624507   -0.003075    1.279907
C     -0.368566   -0.031654   -1.472331
C     -2.922983   -1.158414    1.022964
C     -3.311548    1.161742    0.611752
C     -1.903470   -1.149780    0.095385
C     -2.279160    1.184513   -0.339087
C      3.749058   -0.410783    0.487211
C      3.209544    0.592362   -0.276580
C     -1.536899    0.013815   -0.619295
C      2.894145   -1.471446    0.999561
C      1.890840    0.633857   -0.830746
O      1.687347   -1.615502    0.889240
O      3.576665   -2.470156    1.727611
O      1.568683    1.753953   -1.424053
O      0.868882   -0.271226   -0.881892
H      0.081635   -1.338521   -3.158833
H     -0.676581    0.205647   -3.655205
H     -1.677991   -0.997293   -2.806019
H     -2.845105   -4.484069    1.789628
H     -4.203492    4.459732    0.463234
H     -1.001403   -4.387827    0.093784
H     -2.334526    4.402997   -1.220775
H      6.994217    0.681443    0.689662
H      6.015796    2.501316   -0.688428
H     -4.059965   -2.401993    2.369562
H     -4.799314    2.304360    1.617495
H     -0.434451   -2.222107   -0.958933
H     -1.181664    2.377012   -1.720643
H      5.500794   -1.156129    1.434252
H      3.700940    2.460120   -1.283472
H     -4.436566   -0.012738    2.007975
H     -0.230897    1.104576   -1.796154
H      3.131862   -3.369631    1.930180
