43

C     -1.335538   -0.977307    1.671876
C     -5.735702    0.104079   -0.429917
C     -4.960370   -0.217618   -1.530984
C     -5.154092    0.580307    0.730091
C      2.361246   -0.838669   -1.440824
C      2.531697    0.625309    1.233803
C     -3.601423   -0.044891   -1.422010
C     -3.771858    0.741164    0.799388
C      3.537070    0.108273   -1.400997
C      3.590703   -0.414733    1.061587
C      1.107289   -0.102404   -1.011344
C      1.153851    0.080452    1.405096
C     -1.508843    0.607896   -0.183964
C     -0.819805   -0.631852    0.315609
C     -2.979175    0.428111   -0.281707
C      4.411041   -0.098407   -0.194184
N      0.611283   -0.547300    0.248395
O      5.123159    1.081435    0.038547
H     -1.309278   -0.129522    2.388755
H     -2.418321   -1.240139    1.573928
H     -0.819482   -1.817056    2.166772
H     -6.817344   -0.011267   -0.454428
H     -5.442385   -0.593430   -2.439889
H     -5.759887    0.830529    1.588044
H      2.290266   -1.195146   -2.509970
H      2.529457   -1.767481   -0.853741
H      2.539705    1.415030    0.451963
H      2.773002    1.168263    2.196931
H     -3.000786   -0.300913   -2.294417
H     -3.329273    1.118027    1.721365
H      3.134142    1.147780   -1.480101
H      4.205525   -0.035140   -2.295170
H      4.353071   -0.404284    1.894992
H      3.208874   -1.446947    1.039532
H      0.322512   -0.383347   -1.775485
H      1.236367    1.005916   -1.058638
H      0.501226    0.929711    1.744171
H      1.212611   -0.701796    2.213113
H     -1.110753    0.937538   -1.169175
H     -1.346135    1.481434    0.501412
H     -1.128489   -1.455105   -0.374703
H      5.122542   -0.895836   -0.416677
H      4.492300    1.859335   -0.055391
