35

C     -4.920412    1.033719   -1.079665
C     -3.878111   -1.654885   -0.761555
C      4.809458    1.473087    0.850733
C      4.878506   -0.124769   -1.052262
C     -4.010231    0.676712    0.069352
C      0.453045    0.057787   -0.218269
C      1.162483   -0.789015    1.871172
C      1.766708    0.370703   -0.509359
C      2.462341   -0.468399    1.556610
C     -1.243874   -0.901929    1.348334
C     -3.021680   -0.437705   -0.353337
C      0.115919   -0.535475    0.990180
C      2.814165    0.124516    0.353234
N     -2.268486   -0.792344    0.732079
N      4.145453    0.467636    0.041169
H     -5.832807    0.423202   -1.011392
H     -4.377992    0.791314   -2.023030
H     -5.130040    2.117516   -1.094466
H     -3.132065   -2.409656   -1.106609
H     -4.367917   -2.001166    0.157410
H     -4.535899   -1.424243   -1.596718
H      5.850135    1.627780    0.564970
H      4.274428    2.448491    0.845433
H      4.805148    1.117677    1.922919
H      4.763474    0.521544   -1.953562
H      5.947064   -0.268349   -0.831761
H      4.436511   -1.114243   -1.281439
H     -4.595783    0.313749    0.935857
H     -3.462057    1.566950    0.372216
H     -0.301366    0.284960   -0.944208
H      0.929832   -1.250168    2.831064
H      2.047853    0.840388   -1.467505
H      3.266837   -0.682269    2.263091
H     -1.324356   -1.358915    2.373803
H     -2.526286   -0.044203   -1.273991
