34

C      4.841545    0.080964    1.407922
C      3.571181    0.399084    1.864500
C      4.966924   -0.549909    0.202047
C      2.455066    0.081151    1.108793
C      3.837424   -0.860902   -0.541894
C     -3.978146    0.594049    0.236984
C     -2.383687   -0.747569    1.465074
C      2.565810   -0.554293   -0.107771
C     -1.633647    1.001245   -0.182906
C     -0.268548    0.557143   -0.522639
C     -2.597120   -0.079509    0.131693
N      1.461547   -0.898772   -0.913542
N      0.134529   -0.637935   -0.575701
O     -4.293566    1.219115   -0.982674
O     -1.250923   -1.541827    1.519156
O     -2.126914    1.664265   -1.332945
O      0.631382    1.583215   -0.805355
O     -2.732024   -1.001403   -0.898671
H      5.705354    0.335697    2.009583
H      3.511969    0.895113    2.817549
H      5.958917   -0.795322   -0.148681
H      1.486448    0.343719    1.495692
H      3.987249   -1.359143   -1.487885
H     -3.951758    1.399464    0.999644
H     -4.764935   -0.154356    0.413971
H     -3.255349   -1.444484    1.627675
H     -2.422351   -0.026550    2.281636
H     -1.579655    1.723315    0.636124
H      1.595916   -1.384415   -1.836649
H     -4.828778    2.054167   -0.806772
H     -1.453226   -2.460740    1.177302
H     -1.882844    1.048467   -2.092683
H      1.464983    1.435142   -1.382424
H     -2.772772   -1.918182   -0.507773
