46

C     -0.951136   -1.387200    2.304324
C     -0.984164    1.592457   -3.515565
C     -5.424919   -1.996530    0.740543
C     -0.560461    0.301017   -3.219149
C     -1.612176    2.297379   -2.524629
C     -5.299046   -0.646262    1.013869
C     -4.334126   -2.740290    0.346961
C     -0.762012   -0.255924   -1.974936
C     -1.806667    1.729052   -1.287487
C     -4.078206   -0.016315    0.897953
C     -3.113128   -2.086897    0.236226
C      4.247843   -0.454049   -0.225609
C      3.228534    1.227368    1.043564
C      5.458302    0.232131   -0.183301
C      4.424540    1.937947    1.104243
C     -0.537183   -0.933853    0.897746
C     -1.394702    0.451058   -0.972933
C     -2.956272   -0.743893    0.501444
C      3.115263    0.033231    0.387039
C      5.540723    1.425863    0.482049
C     -1.651795   -0.062216    0.378204
C      1.860183   -0.706609    0.327737
N      6.748488    2.158731    0.552077
O      1.826096   -1.805808   -0.295108
O      6.836193    3.347916    1.212647
O      7.762284    1.686282   -0.016574
O      0.696302   -0.278419    0.914367
H     -1.754175   -2.120228    2.286602
H     -1.136615   -0.500233    2.943301
H     -0.010135   -1.852647    2.723755
H     -0.821744    2.019684   -4.492771
H     -6.406070   -2.470655    0.840829
H     -0.068501   -0.232835   -4.016761
H     -1.946038    3.288963   -2.727446
H     -6.176397   -0.069640    1.325898
H     -4.392694   -3.797416    0.124426
H     -0.430133   -1.249839   -1.764157
H     -2.310901    2.336245   -0.540766
H     -3.972456    1.054136    1.113419
H     -2.245706   -2.655897   -0.071862
H      4.231897   -1.389170   -0.761194
H      2.364025    1.641229    1.534951
H      6.356592   -0.140848   -0.661409
H      4.529465    2.880739    1.618649
H     -0.407910   -1.871363    0.319376
H     -1.681266    0.823606    1.079461
