35

C      4.509672    0.254110    0.602188
C      0.780612   -0.336283   -2.192506
C      3.294109    1.066823    1.014606
C     -3.354181    0.426407    0.963433
C     -3.148852    0.875042   -0.438633
C     -2.336767   -0.627854    1.358560
C     -1.948257    0.291449   -1.114454
C     -0.965195    0.021031    1.172052
C     -0.705920    0.337654   -0.282735
C      1.555388   -0.421370    0.090991
C      0.342895   -0.611985   -0.782729
N     -0.061797   -1.995385   -0.716676
O      2.051356   -1.396813    0.733898
O      2.168419    0.797315    0.228556
H      4.262361   -0.766726    0.311618
H      5.068227    0.720364   -0.229436
H      5.189191    0.222422    1.497850
H      0.034384    0.205925   -2.790137
H      1.011582   -1.277433   -2.755285
H      1.716407    0.262849   -2.235146
H      3.575959    2.140975    0.806265
H      3.106434    1.018669    2.096250
H     -4.393910    0.009880    1.069713
H     -3.306364    1.267510    1.682907
H     -4.037184    0.621651   -1.088198
H     -3.090792    1.999344   -0.494043
H     -2.477966   -1.501460    0.711220
H     -2.458905   -0.838386    2.423090
H     -2.114656   -0.742300   -1.452796
H     -1.781378    0.908671   -2.041889
H     -0.981244    0.939715    1.806918
H     -0.201924   -0.643952    1.606034
H     -0.280898    1.357892   -0.332474
H     -0.737976   -2.247878   -1.448741
H     -0.282829   -2.337872    0.219730
