46

C     -1.084691    0.558976   -2.392595
C     -4.399828   -3.472419   -1.285562
C     -2.418852    1.770765    2.796524
C     -4.300444   -2.951183   -0.011295
C     -3.454401   -3.149074   -2.261016
C     -1.633327    0.681952    3.113491
C     -2.800868    1.992236    1.494253
C     -3.239194   -2.099965    0.272558
C     -2.403453   -2.294660   -1.946693
C     -1.271666   -0.134682    2.083230
C     -2.426397    1.154921    0.459101
C      3.020642    1.755034    0.448180
C      4.446818    0.137338   -0.514714
C      4.136504    2.348272    1.000303
C      5.558147    0.731469    0.037487
C     -0.398782   -0.289188   -1.402678
C     -2.299127   -1.773323   -0.683727
C     -1.645314    0.065356    0.746838
C      3.173217    0.630517   -0.323020
C      5.417636    1.873230    0.822262
C     -1.208344   -0.887202   -0.307528
C      2.032772   -0.055164   -0.943064
N      6.553220    2.498749    1.399468
O      2.224906   -1.083234   -1.641777
O      7.825969    2.038031    1.230542
O      6.376611    3.515477    2.091992
O      0.740701    0.357871   -0.809864
H     -2.137760    0.268067   -2.500323
H     -1.061251    1.647156   -2.174228
H     -0.644011    0.354537   -3.412965
H     -5.228380   -4.140451   -1.517623
H     -2.725427    2.445509    3.603904
H     -5.033523   -3.210921    0.720251
H     -3.534810   -3.556390   -3.251288
H     -1.325832    0.496023    4.133890
H     -3.426493    2.857870    1.236119
H     -3.179294   -1.703481    1.273220
H     -1.638601   -2.015967   -2.651956
H     -0.644477   -1.000697    2.348700
H     -2.769856    1.388006   -0.549419
H      2.011422    2.161074    0.610785
H      4.635075   -0.761063   -1.122779
H      4.008689    3.235851    1.608101
H      6.566870    0.355349   -0.104174
H      0.075271   -1.158373   -1.955491
H     -0.470066   -1.582202    0.232583
