35

C      4.347471    1.151802   -0.282885
C      0.721317   -1.918516    0.969428
C      3.318024    1.265859   -1.362191
C     -3.325152    0.949934   -0.083190
C     -2.280026    1.487748    0.803957
C     -3.347151   -0.522436   -0.295825
C     -1.211038    0.480431    1.221262
C     -2.061084   -1.237634   -0.210689
C     -0.902548   -0.285027   -0.040609
C      1.479969    0.123521   -0.172796
C      0.429243   -0.918895   -0.101249
N      0.547599   -1.679959   -1.365851
O      1.718282    0.959089    0.746913
O      2.322627    0.278257   -1.294442
H      5.308265    1.622065   -0.587705
H      3.968072    1.735886    0.595274
H      4.525894    0.089107   -0.026130
H      0.558989   -2.970036    0.653523
H      0.168389   -1.748238    1.908408
H      1.799853   -1.838435    1.221754
H      2.795438    2.256300   -1.336696
H      3.774311    1.202836   -2.371350
H     -3.231821    1.445465   -1.081222
H     -4.324275    1.309637    0.307227
H     -2.705043    1.912688    1.755739
H     -1.722647    2.338520    0.343227
H     -3.810049   -0.756609   -1.302440
H     -4.067122   -0.957281    0.432007
H     -1.670984   -0.245811    1.957493
H     -0.393156    1.031589    1.657976
H     -1.836052   -1.823339   -1.145277
H     -2.053443   -1.898384    0.680335
H     -0.966458    0.419457   -0.923469
H      1.412956   -2.287173   -1.291351
H      0.711352   -0.972419   -2.117121
