39

C     -0.591575   -0.701953   -1.322418
C      3.377003   -0.336048    1.634854
C      4.020041   -0.548793   -0.782376
C     -3.605829   -1.042589   -0.290443
C     -2.649221    1.233621   -0.849643
C      0.658473   -0.513911    0.694009
C     -0.707292   -1.126421    0.135849
C      2.718955    1.302967   -0.039064
C     -3.685788    0.782723    1.234333
C      2.935472   -0.126706    0.219511
C     -2.791451    0.150031    0.192059
N      1.769207   -0.982689   -0.132361
N     -1.608207   -0.231221    0.856984
O      2.081482    1.745944   -0.975202
O      3.280613    2.201685    0.867892
O     -4.738439    0.217582    1.709975
O     -3.311951    2.065327    1.691621
H     -1.544138   -0.704218   -1.833988
H      0.132889    0.049113   -1.509716
H     -0.093803   -1.644338   -1.780799
H      3.057139    0.478963    2.343057
H      3.081737   -1.337971    2.069520
H      4.495103   -0.320066    1.625459
H      4.524259   -1.416844   -0.368752
H      4.726636    0.333503   -0.907663
H      3.520322   -0.697140   -1.749204
H     -3.941073   -0.826307   -1.350776
H     -4.521417   -1.232956    0.281798
H     -3.013396   -1.984601   -0.266628
H     -3.139686    2.203376   -0.531545
H     -3.198342    0.998542   -1.803325
H     -1.592196    1.540882   -1.026447
H      0.766681   -0.952431    1.729631
H      0.599848    0.528142    0.763409
H     -0.746250   -2.106139    0.356193
H      2.029551   -1.943297    0.094049
H     -1.847300   -0.711882    1.752408
H      3.294181    3.203088    0.621738
H     -3.742239    2.453028    2.488297
