29

C      0.444944    0.937695    0.957611
C     -4.287929    0.197801   -0.498184
C     -3.930396   -1.025697    0.018451
C     -3.312319    1.022541   -0.984007
C     -2.600699   -1.375206    0.027260
C     -1.962846    0.649805   -0.966884
C     -0.169010   -0.947178   -0.444894
C      1.913030   -1.067277    0.907564
C      0.541888   -0.531176    0.833710
C     -1.586099   -0.573722   -0.452351
C      3.524953    0.418431   -0.282634
N      6.828902    0.902551   -0.534058
N      4.516537    0.529988   -1.334912
N      5.668916    0.857914   -0.996349
O      3.281310    1.450891    0.378620
O      2.870819   -0.717718    0.007813
H      0.671834    1.412096   -0.011303
H     -0.641630    1.234847    1.210362
H      1.052760    1.294727    1.794428
H     -5.343695    0.438541   -0.488417
H     -4.682256   -1.702784    0.411720
H     -3.621270    1.979745   -1.384900
H     -2.333742   -2.327155    0.430504
H     -1.290412    1.379106   -1.376226
H     -0.050375   -2.037329   -0.649361
H      0.329048   -0.422438   -1.288058
H      1.895091   -2.201923    1.090646
H      2.290858   -0.729262    1.947094
H     -0.018212   -1.064709    1.676754
