48

C      7.415572    1.147260   -0.294912
C     -5.235656    2.482639    1.479424
C     -3.708564   -1.226825   -3.125259
C     -3.965091    2.879130    1.843136
C     -5.390079    1.175061    1.081264
C     -3.368185   -2.175953   -2.179178
C     -3.250020    0.069618   -3.065239
C     -2.873396    2.052031    1.827414
C     -4.303454    0.320897    1.056952
C     -2.526356   -1.778068   -1.134098
C     -2.410908    0.420127   -2.001793
C      5.738545    0.198488    1.281827
C      5.354244    0.007947   -1.078179
C      4.549584   -0.465323    1.504093
C      4.157416   -0.660615   -0.817846
C     -1.854261   -0.180233    1.404395
C      0.039472   -1.013430    0.002300
C      6.134949    0.432002   -0.027203
C     -3.043878    0.731681    1.422446
C     -2.054051   -0.495404   -1.047429
C     -1.174196   -0.102056    0.055608
C      3.756879   -0.896247    0.472644
O      2.366175   -2.456040    2.154129
O      2.029896   -2.697090   -0.294654
O      0.979998   -0.667537    0.968466
S      2.271832   -1.726139    0.827055
H      7.355066    1.719091   -1.258424
H      8.287728    0.474259   -0.264516
H      7.552699    1.921344    0.492521
H     -6.091408    3.160345    1.499989
H     -4.366075   -1.510379   -3.954361
H     -3.832326    3.916106    2.160967
H     -6.366581    0.797989    0.781389
H     -3.729898   -3.192999   -2.229185
H     -3.547413    0.768970   -3.830563
H     -1.878630    2.392904    2.120728
H     -4.460067   -0.718054    0.735193
H     -2.287986   -2.562536   -0.415056
H     -2.076873    1.454407   -2.000448
H      6.343628    0.527139    2.097827
H      5.695964    0.207989   -2.079193
H      4.283453   -0.623806    2.555003
H      3.559043   -0.985207   -1.665845
H     -1.209111    0.132189    2.224674
H     -2.235936   -1.196698    1.633997
H      0.545599   -0.956882   -0.981802
H     -0.310957   -2.058930    0.129727
H     -0.866386    0.956842   -0.067987
