31

C      3.902696    1.410046    0.048220
C      2.596055   -2.168064   -0.340589
C     -3.352340   -1.080096    1.825725
C     -3.309529    1.796175   -1.281896
C      1.675418    1.184338   -0.552417
C     -0.048357   -0.353830    0.337266
C      1.448694   -0.178608    0.033225
O     -2.765875   -1.932761   -0.666509
O      2.956603    1.454518   -0.934477
O      1.759087   -1.213476   -0.845274
O     -2.642870   -0.083754    1.158793
O     -3.422895    0.424364   -1.475791
O     -0.790923   -0.264225   -0.829045
P     -2.407360   -0.458300   -0.463904
H      4.890654    1.654213   -0.442704
H      4.038888    0.469841    0.575159
H      3.786249    2.199007    0.823616
H      2.217449   -2.694986    0.557604
H      3.588174   -1.752807   -0.171261
H      2.719690   -2.953634   -1.137401
H     -4.065807   -0.569684    2.505383
H     -2.619002   -1.694688    2.363589
H     -3.872566   -1.713973    1.079229
H     -2.697601    2.282866   -2.069377
H     -2.946487    2.055423   -0.268891
H     -4.331257    2.229535   -1.372849
H      1.243913    1.940072    0.122461
H      1.041981    1.231709   -1.487128
H     -0.402774    0.407182    1.050518
H     -0.130931   -1.339838    0.837659
H      1.941025   -0.286567    1.021069
