52

C     -4.275498   -3.102333    1.596050
C     -4.213750    3.204797    0.940859
C     -2.937260   -3.364541    1.377843
C     -4.875353   -2.088442    0.889938
C     -4.240245    2.857566   -0.385924
C     -3.270681    2.654677    1.778578
C      6.489659    1.380925   -0.229246
C      5.412593    1.833992   -0.954747
C      3.661459   -1.787350    1.887370
C     -2.186747   -2.642396    0.475983
C     -4.112352   -1.360741   -0.021209
C     -3.318865    1.945625   -0.913085
C     -2.360842    1.756287    1.265662
C      6.357356    0.353214    0.681401
C      4.915609   -1.233849    1.734519
C      4.166635    1.279798   -0.798919
C      2.595431   -1.316497    1.148604
C     -2.050472   -0.802649   -1.225917
C     -0.686226    1.134782   -1.771348
C     -2.777966   -1.621000   -0.239706
C     -2.371656    1.390226   -0.082005
C      5.097115   -0.192720    0.825530
C     -1.386825    0.423103   -0.618792
C      4.003478    0.255122    0.100119
C      2.740459   -0.287895    0.240768
C      1.355159   -0.243786   -1.692161
N      1.643325    0.207151   -0.529199
O      2.130433   -1.251457   -2.235959
O      0.282400    0.285461   -2.370277
H     -4.852808   -3.684624    2.313871
H     -4.930674    3.910792    1.338155
H     -2.440892   -4.161507    1.924396
H     -5.914043   -1.885868    1.060146
H     -4.968594    3.277105   -1.052068
H     -3.207114    2.894444    2.829812
H      7.465962    1.825041   -0.360451
H      5.522693    2.640810   -1.667882
H      3.559163   -2.592802    2.601472
H     -1.138374   -2.831128    0.290075
H     -4.646291   -0.582379   -0.541949
H     -3.360620    1.685242   -1.972927
H     -1.594582    1.290551    1.878947
H      7.205613   -0.000931    1.250308
H      5.780997   -1.565470    2.287535
H      3.295284    1.626161   -1.367241
H      1.599240   -1.744301    1.259086
H     -1.298200   -1.445448   -1.725037
H     -2.765003   -0.496189   -2.004734
H     -0.142907    2.021321   -1.396966
H     -1.429894    1.379576   -2.553639
H     -0.638801    0.128783    0.143085
H      3.113476   -1.356247   -2.013373
