34

C     -4.057172   -2.338141   -0.591483
C     -0.247646   -1.126105    1.594209
C     -0.440754    3.161663    1.180140
C      3.923865    1.180857   -0.144104
C      2.937482    1.891077   -0.797974
C      3.661429   -0.101390    0.271435
C      1.701492    1.324079   -1.033508
C      2.412700   -0.643939    0.021449
C      0.117468   -0.642986   -0.827675
C     -2.574962   -1.996866   -0.698510
C      1.415684    0.050704   -0.630035
C     -1.099264    0.935464    0.558297
C     -0.840156   -0.527057    0.311218
N     -2.058077   -1.144605    0.040533
O     -1.879604   -2.705311   -1.668367
O     -2.249855    1.367324    0.384085
O     -0.102694    1.791707    0.968902
H     -4.565519   -1.608514   -1.249118
H     -4.264070   -3.366562   -0.872454
H     -4.318177   -2.190330    0.472753
H     -1.015085   -1.093829    2.394460
H      0.589537   -0.478074    1.927628
H      0.143115   -2.140132    1.399557
H     -0.893599    3.336946    2.164286
H      0.505083    3.726901    1.055855
H     -1.130888    3.434996    0.356834
H      4.912756    1.625967    0.047767
H      3.152544    2.902525   -1.122751
H      4.450539   -0.644399    0.784347
H      0.930044    1.886895   -1.552956
H      2.254650   -1.656667    0.367960
H     -0.370999   -0.249731   -1.725925
H      0.368548   -1.712060   -0.973142
H     -1.368415   -2.250408   -2.413714
