34

C      3.602920    0.014592    1.256319
C     -2.352214    2.536220    1.763975
C     -0.425173    1.173443   -2.131466
C      3.050108    1.322079    0.824737
C     -1.618525   -3.471389   -0.997329
C     -0.750169   -3.117145    0.018158
C     -2.059987   -2.531380   -1.901365
C     -0.336068   -1.800931    0.105237
C     -1.658874   -1.214855   -1.831157
C     -1.472950    1.420071    1.287169
C     -0.784157   -0.875181   -0.802021
C      1.112345    0.540466   -0.406654
C     -0.360625    0.535640   -0.718281
N     -1.138096    1.372913    0.103632
O     -1.066403    0.475094    2.205622
O      1.909246   -0.204064   -1.032179
O      1.685551    1.343599    0.564910
H      3.973383   -0.611620    0.396977
H      2.925334   -0.546422    1.911015
H      4.526279    0.223866    1.865100
H     -1.688264    3.337583    2.149922
H     -2.928570    2.987569    0.922418
H     -2.976747    2.194076    2.587273
H     -0.121763    0.463877   -2.899790
H      0.234311    2.058386   -2.184419
H     -1.453860    1.517683   -2.349900
H      3.264044    2.076326    1.624405
H      3.662708    1.675921   -0.055246
H     -1.927554   -4.507681   -1.043616
H     -0.382894   -3.825940    0.744926
H     -2.741852   -2.804814   -2.700591
H      0.345834   -1.561720    0.904082
H     -1.979928   -0.446167   -2.518062
H     -0.067389    0.249905    2.336200
