43

C     -4.547201    2.367483    1.026479
C     -3.285996   -2.590142   -1.821468
C      3.794289    2.558875   -0.163257
C      4.993795   -1.082491   -0.088109
C     -3.423738    1.342871    1.082714
C     -2.171701   -1.771254   -2.387612
C      3.372258    1.933330    1.173319
C      3.488208   -1.055339   -0.139724
C     -2.688866   -0.695081    0.484068
C     -0.351341   -0.938138   -0.071767
C     -1.650337   -0.433237   -0.581582
O      0.779571   -0.187126    2.298652
O     -3.722955    0.189382    0.388611
O     -1.998689   -0.506444   -1.847483
O      1.990265    1.782046    1.096934
O      3.050196   -0.690001    1.123917
O      0.734346   -0.106397   -0.364269
P      1.625774    0.080743    1.121278
H     -4.262236    3.102221    0.243263
H     -5.490481    1.839025    0.821236
H     -4.572816    2.865800    2.027232
H     -3.750864   -3.221590   -2.638612
H     -2.912111   -3.364780   -1.101845
H     -4.137424   -2.011741   -1.417732
H      3.045792    3.251589   -0.502115
H      3.847850    1.716582   -0.927651
H      4.792996    2.966309   -0.122921
H      5.408330   -2.011885    0.212710
H      5.409790   -0.607268   -1.013234
H      5.301446   -0.322772    0.714263
H     -2.486395    1.825442    0.879885
H     -3.343935    0.987606    2.165441
H     -1.247015   -2.393830   -2.351000
H     -2.393631   -1.623960   -3.464048
H      3.558969    2.819227    1.901211
H      3.954315    1.148075    1.558923
H      3.042116   -0.414322   -0.893898
H      3.200259   -2.114485   -0.396272
H     -2.921851   -1.736206    0.614132
H     -2.098846   -0.440578    1.461319
H     -0.350318   -1.233241    0.953472
H     -0.115662   -1.953563   -0.611293
H     -1.466155    0.729266   -0.443167
