41

C      0.054400   -0.380976    1.956035
C     -6.810378    1.055683   -0.415123
C      6.903044    0.569175   -0.452038
C     -2.483132   -1.288395    0.267608
C     -2.558523    0.836390   -0.813342
C     -3.873325   -1.246299    0.412986
C     -3.939892    0.886719   -0.673246
C      2.280515   -1.174304    0.252096
C      2.704635    1.178735    0.296831
C      3.628461   -1.366319    0.011866
C      4.042275    0.967599    0.057412
C     -0.369611   -0.271304   -0.508025
C      0.364990    0.346588    0.655659
C     -6.056931   -0.117984    0.096423
C      5.935342   -0.549602   -0.342175
C     -1.836476   -0.241074   -0.347333
C      1.827382    0.137809    0.395047
C     -4.589272   -0.164863   -0.055793
C      4.510572   -0.312071   -0.086519
O     -6.635773   -1.073668    0.656163
O      6.366116   -1.723710   -0.474396
H      0.069259   -1.471290    1.758945
H     -0.926892   -0.094049    2.369942
H      0.827239   -0.140187    2.713133
H     -6.418693    1.311167   -1.423389
H     -7.890403    0.809524   -0.439042
H     -6.606697    1.926511    0.252056
H      7.313163    0.859940    0.543076
H      6.453706    1.454779   -0.957526
H      7.745226    0.249414   -1.092635
H     -1.949041   -2.156416    0.648757
H     -2.002534    1.632505   -1.288518
H     -4.387476   -2.073578    0.899126
H     -4.459671    1.757073   -1.057305
H      1.642500   -2.029000    0.318656
H      2.344708    2.183450    0.408509
H      3.978010   -2.397205   -0.099338
H      4.682840    1.812205   -0.010086
H     -0.014131    0.210542   -1.430784
H     -0.067016   -1.340232   -0.559232
H      0.201482    1.426716    0.737856
