43

C      4.966486    2.350350   -0.270837
C      2.584751   -3.883931    0.909871
C     -2.903554    3.394086    0.459434
C     -4.678063   -1.858923    0.773150
C      3.700513    1.563866   -0.482729
C      2.786934   -2.474633    0.368472
C     -3.581814    2.204288   -0.188238
C     -4.006666   -1.184267   -0.416117
C      1.893701    0.726830    0.663184
C      0.225286   -0.614091   -0.617094
C      1.627308   -0.582952   -0.069201
O     -1.852708   -0.331426   -2.386552
O      3.279087    0.930010    0.685777
O      1.808709   -1.610537    0.857713
O     -2.853056    1.768989   -1.277302
O     -2.788394   -0.711707    0.031295
O     -0.456319    0.587247   -0.431726
P     -2.029810    0.336060   -1.030356
H      5.257532    2.778369   -1.245137
H      4.776404    3.166189    0.470746
H      5.766498    1.700231    0.152321
H      1.894548   -4.427620    0.234040
H      3.554578   -4.416570    0.959901
H      2.136312   -3.855583    1.919671
H     -2.229833    3.866709   -0.268895
H     -3.635554    4.156264    0.785806
H     -2.334684    3.001437    1.327742
H     -5.692077   -1.419682    0.926638
H     -4.710089   -2.961817    0.660431
H     -4.117721   -1.667573    1.723119
H      3.900984    0.808731   -1.259501
H      2.923381    2.271340   -0.837918
H      2.733019   -2.504995   -0.748720
H      3.769224   -2.092342    0.693673
H     -4.553204    2.588212   -0.591804
H     -3.807410    1.424958    0.551915
H     -3.913011   -1.903083   -1.267465
H     -4.657191   -0.362245   -0.801205
H      1.528518    0.605979    1.713265
H      1.383660    1.543371    0.128067
H      0.260546   -0.796016   -1.721057
H     -0.338824   -1.479155   -0.190152
H      2.382003   -0.634369   -0.894226
