108

C      7.219011    6.302071    0.015303
C     -8.984651    4.754702    0.721168
C      7.074416    4.816108   -0.381043
C    -10.124492    3.997766    0.168514
C      8.129774    4.432309   -1.320067
C     -9.858912    2.703877   -0.512900
C      8.212938    3.121651   -1.950121
C     -9.237660    1.627385    0.276059
C      8.316154    1.830800   -1.341610
C     -7.879362    1.798257    0.820534
C      7.312142    1.065739   -0.603699
C     -6.779277    1.973775   -0.202877
C      6.679124    1.605956    0.603544
C     -6.716065    0.767006   -1.106274
C      5.733356    0.598501    1.299067
C     -5.654986    0.830419   -2.149277
C      6.530246   -0.581077    1.737366
C     -4.253812    0.954855   -1.510903
C      5.626919   -1.566576    2.478274
C     -3.250257    0.994800   -2.598967
C      4.529786   -2.040094    1.599083
C     -1.857093    1.180446   -2.201699
C      4.980356   -2.744840    0.361678
C     -1.114204    0.247894   -1.361497
C      3.850895   -3.258170   -0.491889
C     -1.517182   -0.035283    0.029259
C     -3.670789   -6.689550    0.945880
C      2.909252   -2.208993   -0.987306
C     -0.421728   -1.017604    0.574288
C     -2.397651   -6.478769    1.770473
C      1.108777   -3.663723   -1.126233
C     -0.570792   -4.256762    0.581941
C      0.381804   -3.144360    0.062002
Br    -3.688727   -8.530035    0.364883
O     -1.979963   -4.847027    4.059842
O     -3.760667   -4.213644    2.320244
O      1.890295   -2.741651   -1.773437
O     -0.509476   -2.104421   -0.255585
O     -1.255866   -3.788911    1.674049
P     -2.346341   -4.802469    2.384108
H      7.943343    6.422783    0.835792
H      6.227874    6.606306    0.370344
H      7.465184    6.907989   -0.879295
H     -9.143747    5.854583    0.496823
H     -8.922021    4.664229    1.851112
H     -8.005447    4.517301    0.328594
H      7.267755    4.298657    0.617571
H      6.063871    4.653527   -0.723240
H    -10.755412    4.651823   -0.491834
H    -10.828361    3.779755    1.035634
H      8.203967    5.224157   -2.173421
H      9.149398    4.582058   -0.781387
H     -9.325011    2.942731   -1.463582
H    -10.876073    2.312926   -0.842326
H      9.080711    3.194875   -2.732651
H      7.310975    3.024627   -2.712900
H     -9.917844    1.448328    1.170453
H     -9.309355    0.622807   -0.257941
H      8.763344    1.063112   -2.113369
H      9.234938    1.864327   -0.596578
H     -7.752022    2.537895    1.607722
H     -7.619687    0.809725    1.326992
H      7.757235    0.023238   -0.384190
H      6.466196    0.843330   -1.370824
H     -5.825809    2.006276    0.379504
H     -6.833456    2.868172   -0.809122
H      7.353912    2.032095    1.355073
H      5.954277    2.450943    0.303200
H     -7.687075    0.687468   -1.622807
H     -6.575526   -0.170594   -0.528166
H      4.946417    0.349422    0.571040
H      5.278321    1.154667    2.131335
H     -5.746750    1.685142   -2.851644
H     -5.598459   -0.090649   -2.761241
H      7.008262   -1.118694    0.912150
H      7.366533   -0.286418    2.421258
H     -4.193417    1.879162   -0.912627
H     -4.171342    0.021344   -0.936745
H      6.214707   -2.448718    2.810588
H      5.196264   -1.036088    3.341770
H     -3.309086    0.076762   -3.260751
H     -3.570265    1.813343   -3.329569
H      3.819819   -1.211481    1.318924
H      3.906981   -2.759282    2.183702
H     -1.690982    2.234269   -1.760181
H     -1.258546    1.250644   -3.187874
H      5.687549   -2.123839   -0.233044
H      5.559361   -3.648265    0.685378
H     -0.043153    0.660653   -1.296404
H     -0.939401   -0.756758   -1.864160
H      3.244682   -3.943623    0.174937
H      4.326584   -3.835897   -1.311762
H     -1.507532    0.825382    0.693011
H     -2.415328   -0.664632    0.100916
H     -3.672773   -6.029903    0.052707
H     -4.516964   -6.474078    1.623659
H      3.488581   -1.530416   -1.653032
H      2.513815   -1.565311   -0.179216
H      0.524714   -0.482098    0.576997
H     -0.751909   -1.296944    1.596616
H     -1.506273   -6.845487    1.269358
H     -2.544812   -7.171652    2.654703
H      1.627895   -4.618175   -0.891868
H      0.318309   -3.963353   -1.879958
H     -1.169285   -4.648457   -0.240547
H      0.096008   -5.077500    0.917982
H      0.980144   -2.820764    0.911025
H     -1.020095   -5.118110    4.193539
