33

C     -4.666905   -0.366573    0.002188
C     -3.791167    2.040713    0.424848
C      1.424427   -1.535138   -1.839480
C      4.179080    2.120714   -0.040757
C      2.920264    2.339396   -0.545337
C      4.561340    0.843679    0.363640
C      2.036925    1.288047   -0.649448
C      3.649579   -0.167585    0.240844
C     -3.579884    0.572618    0.352051
C      1.394413   -1.111685   -0.385945
C      2.377237    0.004476   -0.258996
C     -0.830823   -1.627008    0.099909
N      0.093201   -0.751709    0.072966
N     -2.419541    0.108092    0.600388
N     -2.121898   -1.261426    0.557450
O     -0.581321   -2.916850   -0.310766
H     -4.354656   -1.095881   -0.768832
H     -5.530880    0.191860   -0.438374
H     -4.958704   -0.926799    0.897358
H     -3.071708    2.511696    1.156895
H     -4.822586    2.199765    0.852660
H     -3.691025    2.487621   -0.581470
H      1.625555   -0.628468   -2.447207
H      0.550534   -2.093115   -2.170671
H      2.346639   -2.171961   -1.950730
H      4.912441    2.919135    0.061118
H      2.620660    3.320931   -0.858282
H      5.562662    0.714781    0.755651
H      1.033390    1.483571   -1.056093
H      3.932821   -1.163264    0.550750
H      1.734776   -1.982429    0.232478
H     -2.842015   -1.983297    0.857701
H      0.307169   -3.363907   -0.147530
