42

C     -2.730004    3.576864   -1.624927
C     -1.532573   -1.943758   -0.926360
C     -3.645124   -1.800926    0.277880
C     -2.357208    2.646307   -0.496114
C      5.418045   -1.411996    0.787061
C      4.972746   -0.594308    1.791831
C     -1.211861    1.733846   -0.878608
C      4.578066   -1.651702   -0.262282
C      3.722115   -0.058421    1.707547
C     -1.964410   -0.068371    0.643183
C     -2.541925   -0.964151   -0.386929
C     -0.830783    0.803190    0.245260
C      3.283610   -1.099423   -0.356317
C      2.829709   -0.284038    0.643755
C      2.513186   -1.352890   -1.533239
C      1.516254    0.298129    0.753607
O      3.025402   -2.182902   -2.374572
O      1.316048   -0.833612   -1.886154
O      1.336513    1.114160    1.737912
O      0.396550    0.142621   -0.002955
H     -1.856163    3.706829   -2.290699
H     -3.634861    3.260925   -2.153130
H     -2.934265    4.601492   -1.204356
H     -0.620808   -1.946055   -0.289619
H     -1.929891   -2.974900   -0.873508
H     -1.272783   -1.725044   -1.990301
H     -3.867556   -2.707891   -0.303605
H     -4.556230   -1.177532    0.450551
H     -3.279348   -2.120112    1.275655
H     -2.166426    3.180461    0.446901
H     -3.253670    1.990658   -0.329701
H      6.408421   -1.834290    0.859519
H      5.603521   -0.370538    2.649856
H     -1.523588    1.158422   -1.797778
H     -0.380883    2.382959   -1.196600
H      4.951648   -2.302851   -1.047646
H      3.408985    0.581195    2.521318
H     -1.673352   -0.689921    1.545076
H     -2.766684    0.603272    1.069058
H     -3.071366   -0.425573   -1.203659
H     -0.689227    1.498008    1.146132
H      1.010170   -0.758131   -2.863131
