39

C     -4.072374    1.458383    1.365123
C     -0.965883   -2.881836    0.174831
C     -4.319957   -0.005316    1.094289
C     -1.254923   -2.113467   -1.097531
C     -3.484862   -0.463194   -0.105244
C      4.913122    0.603001    1.188201
C      3.857152   -0.153982    1.640866
C     -2.044542   -0.221329    0.271323
C      4.719493    1.296238    0.029838
C      2.678433   -0.193236    0.944049
C     -1.076725   -0.624672   -0.818968
C      3.514221    1.271992   -0.706389
C      2.462641    0.517194   -0.254173
C      3.426184    2.047751   -1.920218
C      1.171765    0.404238   -0.912980
O      2.478460    2.163421   -2.700205
O      4.578470    2.779880   -2.274018
O      0.771757    0.925125   -1.946525
O      0.225611   -0.425268   -0.281749
H     -4.887447    1.846120    2.018966
H     -3.997545    2.002600    0.413985
H     -3.140821    1.514846    1.975239
H     -0.262699   -2.270621    0.765404
H     -1.932967   -3.000755    0.731479
H     -0.539293   -3.887951   -0.026210
H     -4.032831   -0.564714    2.007593
H     -5.394966   -0.229697    0.909439
H     -0.540748   -2.454293   -1.875604
H     -2.259860   -2.337263   -1.471491
H     -3.797787    0.071507   -0.997819
H     -3.627791   -1.560450   -0.177390
H      5.839332    0.629894    1.741649
H      3.987846   -0.719017    2.567638
H     -1.774324   -0.690668    1.215234
H     -1.937515    0.895696    0.385289
H      5.548066    1.889567   -0.324393
H      1.839684   -0.791341    1.298889
H     -1.238130   -0.072254   -1.746654
H      4.571753    3.343871   -3.101761
