39

C     -3.067129    2.224194   -2.577225
C     -0.526758   -3.121006    1.805029
C     -3.200532    0.754521   -2.262061
C     -1.483560   -2.817078    0.687006
C     -2.234149    0.447296   -1.132768
C      4.611898    0.827688   -0.323742
C      3.844176   -0.075558   -1.029416
C     -2.363317   -1.019742   -0.813863
C      4.075532    1.450985    0.753569
C      2.567178   -0.309608   -0.615325
C     -1.423423   -1.347808    0.293589
C      2.752573    1.203258    1.175994
C      1.966150    0.316884    0.501772
C      2.265197    1.917893    2.342049
C      0.598687   -0.031155    0.822344
O      1.156771    1.852873    2.877795
O      3.159332    2.825698    2.980733
O     -0.059761    0.418075    1.747992
O     -0.090883   -0.969355    0.030290
H     -4.066438    2.672207   -2.538713
H     -2.571247    2.347087   -3.571969
H     -2.432038    2.762213   -1.829305
H      0.446572   -3.437083    1.367178
H     -0.959440   -3.937450    2.439012
H     -0.384030   -2.228998    2.418447
H     -4.215576    0.491535   -1.882486
H     -2.907554    0.111599   -3.109477
H     -1.186224   -3.432339   -0.190214
H     -2.523210   -3.051869    0.979879
H     -1.191391    0.705430   -1.395265
H     -2.481053    1.014212   -0.204657
H      5.634046    0.997502   -0.677148
H      4.288618   -0.574730   -1.900470
H     -3.398971   -1.214433   -0.446116
H     -2.239332   -1.654213   -1.711223
H      4.644593    2.154384    1.319072
H      1.960108   -1.006334   -1.151402
H     -1.763447   -0.774806    1.198234
H      2.798032    3.508031    3.622860
