47

C      6.471577    0.561072   -0.230724
C      4.850687   -1.017287   -1.155827
C      0.541771   -1.061048   -0.076944
C     -5.071802   -0.717594   -2.742523
C     -3.704508   -0.573781   -2.633377
C      2.672599    0.814509   -0.092933
C     -5.358743   -0.092975    2.046759
C      4.122875    1.184685   -0.195985
C      2.314790    0.131632    1.194813
C     -5.815396   -0.630123   -1.584243
C     -5.946426   -0.316647    0.810346
C     -3.094469   -0.349546   -1.408300
C     -4.007151    0.047416    2.141652
C      5.057562    0.024092   -0.111220
C      0.811143   -0.164124    1.113872
C     -5.208184   -0.405929   -0.357490
C     -3.839443   -0.262240   -0.250284
C     -3.256673   -0.038203    0.992250
C     -1.184039    1.100938    0.647362
N     -1.857776    0.108952    1.103967
O     -1.806001    2.167466   -0.029550
O      0.189627    1.081216    0.848063
H      6.714414    0.542050   -1.323323
H      7.145311   -0.163926    0.268475
H      6.559926    1.579005    0.153822
H      4.108188   -0.737277   -1.937281
H      5.792264   -1.249949   -1.711081
H      4.547049   -2.004294   -0.698287
H      1.408282   -1.706243   -0.317689
H      0.346513   -0.465709   -1.005813
H     -0.379670   -1.650516    0.118301
H     -5.558810   -0.894189   -3.702758
H     -3.135049   -0.645323   -3.553802
H      2.310040    0.191808   -0.933908
H      2.090497    1.761918   -0.135009
H     -5.971541   -0.029813    2.935750
H      4.352917    1.884861    0.621002
H      4.270188    1.708731   -1.153405
H      2.411057    0.844428    2.062960
H      2.899512   -0.763343    1.416100
H     -6.890468   -0.739060   -1.639654
H     -7.003437   -0.424094    0.753450
H     -2.019422   -0.239260   -1.342874
H     -3.514695    0.222684    3.088238
H      4.913910   -0.437901    0.906866
H      0.448820   -0.605570    2.064380
H     -2.727814    2.428503    0.291250
