42

C      5.864199    1.197706    1.424185
C      1.786087   -1.495977   -2.192389
C      4.917111    0.400737    0.548011
C      3.624139    1.149025    0.474399
C      2.585622    0.466364   -0.369468
C     -6.161373   -0.808406    0.927134
C     -5.251173   -1.833337    0.920797
C     -2.888836    2.286552   -0.621901
C      2.225699   -0.902729    0.130449
C     -5.806408    0.464176    0.548230
C     -4.165805    2.031768   -0.231945
C     -3.947343   -1.524098    0.511624
C     -1.975057    1.291230   -0.635838
C      1.164624   -1.451670   -0.835562
C     -4.516683    0.755854    0.146676
C     -3.563696   -0.271075    0.129647
C     -2.249379   -0.039175   -0.264884
C     -1.215082   -1.037967   -0.309412
O     -1.251308   -2.235933   -0.030593
O      0.060646   -0.601973   -0.739395
H      5.446013    2.217036    1.656198
H      6.862346    1.325948    0.967159
H      5.989898    0.704192    2.417321
H      1.503664   -2.452364   -2.680276
H      2.893165   -1.495279   -2.118759
H      1.436398   -0.691519   -2.868129
H      5.370059    0.315156   -0.472637
H      4.825003   -0.601616    0.995590
H      3.246553    1.381403    1.479601
H      3.839090    2.131498   -0.013224
H      2.869058    0.445574   -1.420933
H      1.654857    1.091062   -0.294195
H     -7.181436   -0.995620    1.234949
H     -5.460659   -2.845486    1.203168
H     -2.567792    3.286242   -0.930584
H      3.050638   -1.613357    0.120575
H      1.738810   -0.870774    1.116837
H     -6.510773    1.288068    0.546223
H     -4.914002    2.809949   -0.212244
H     -3.221023   -2.322266    0.502121
H     -0.949188    1.513402   -0.953058
H      0.843338   -2.462321   -0.524789
