59

C     -8.298761   -0.432453   -1.910535
C      8.717319   -0.228011   -0.716696
C      4.321347   -1.038645   -1.796678
C     -7.825213   -0.115716   -0.500623
C      8.205548    0.625035    0.402196
C     -6.555890   -0.895487   -0.270387
C      7.234971   -0.073381    1.297101
C     -6.062026   -0.617099    1.126565
C     -5.794688    0.842755    1.299628
C     -4.760898    1.297096    0.305508
C     -3.463617    0.521148    0.534695
C     -2.431144    0.997766   -0.471652
C     -1.137698    0.236119   -0.254956
C      6.001247   -0.566014    0.612002
C     -0.543400    0.420945    1.089840
C      5.195423    0.514201   -0.037157
C      0.730500   -0.352912    1.232626
C      3.945793   -0.043374   -0.724288
C      1.756934    0.127377    0.288013
O      1.582695    1.117195   -0.453925
O      2.995863   -0.502937    0.166995
H     -8.020695   -1.460712   -2.135920
H     -9.401320   -0.308258   -1.901568
H     -7.801910    0.277396   -2.591435
H      9.804126   -0.464926   -0.606536
H      8.627615    0.308792   -1.676281
H      8.210883   -1.227762   -0.740011
H      3.513937   -1.096886   -2.576004
H      4.602521   -2.014623   -1.413679
H      5.201837   -0.618553   -2.329868
H     -7.556010    0.979776   -0.459092
H     -8.580263   -0.387433    0.249501
H      7.807036    1.612587    0.031377
H      9.085851    0.907270    1.031200
H     -5.822508   -0.643042   -1.040040
H     -6.743400   -2.004043   -0.407936
H      7.762800   -0.924695    1.771745
H      6.995836    0.640316    2.133214
H     -6.832081   -0.978704    1.884066
H     -5.189490   -1.255152    1.315325
H     -5.295109    0.948978    2.317197
H     -6.703544    1.463529    1.286754
H     -5.120951    1.213563   -0.735165
H     -4.569110    2.388441    0.524970
H     -3.614875   -0.550412    0.306229
H     -3.132690    0.742054    1.547906
H     -2.259550    2.072756   -0.425778
H     -2.809811    0.693090   -1.475322
H     -1.372866   -0.852073   -0.440823
H     -0.459081    0.563696   -1.044756
H      6.275290   -1.343098   -0.106907
H      5.358301   -1.029140    1.394152
H     -1.243553    0.189456    1.924932
H     -0.252133    1.506762    1.177850
H      4.823845    1.241213    0.714836
H      5.769968    1.106458   -0.781172
H      0.489361   -1.431820    1.041310
H      1.116708   -0.227577    2.277126
H      3.520733    0.832523   -1.259668
