65

C     -4.601767    2.771978   -0.355858
C      5.935753    3.165733   -0.509456
C      3.891467   -2.888699   -2.082238
C     -5.596977    1.996919   -1.121032
C      7.037327    2.175885   -0.185211
C     -5.796576    0.564706   -0.807018
C      6.850051    0.911872   -1.006321
C     -6.236657    0.194413    0.553490
C     -5.341287    0.482391    1.691204
C     -4.011282   -0.258351    1.612413
C     -4.177559   -1.721395    1.605305
C     -2.936481   -2.505879    1.544257
C     -2.058377   -2.480316    0.365061
C     -1.407726   -1.231810   -0.089741
C     -0.554832   -0.628320    1.005873
C      5.527283    0.266500   -0.709217
C      0.098956    0.641203    0.552046
C      5.388680   -0.978927   -1.547085
C      0.991439    0.452752   -0.635215
C      4.072811   -1.627167   -1.256496
C      2.099031   -0.465146   -0.330048
O      2.329383   -0.990780    0.774995
O      2.972179   -0.776707   -1.371289
H     -4.173842    3.551072   -1.078149
H     -3.713885    2.245123   -0.000008
H     -5.078348    3.439455    0.421232
H      6.353094    4.174868   -0.723884
H      5.241989    3.254461    0.338682
H      5.340831    2.836647   -1.389921
H      4.809427   -3.487257   -2.040244
H      3.575895   -2.615022   -3.091713
H      3.100284   -3.490278   -1.556612
H     -5.293329    2.034381   -2.214401
H     -6.556784    2.581013   -1.113032
H      6.981463    1.929431    0.886359
H      8.013580    2.644069   -0.418234
H     -4.890084    0.006749   -1.151595
H     -6.602552    0.197501   -1.515486
H      6.896445    1.163235   -2.090428
H      7.690794    0.233862   -0.803090
H     -6.579125   -0.889655    0.552312
H     -7.223630    0.735880    0.719805
H     -5.115852    1.548881    1.799531
H     -5.864008    0.197414    2.649606
H     -3.488328    0.005611    2.578497
H     -3.386488    0.101361    0.814347
H     -4.797280   -2.060789    0.695531
H     -4.738457   -2.079018    2.526489
H     -3.109945   -3.582515    1.896247
H     -2.287255   -2.106593    2.418512
H     -2.596437   -2.960297   -0.532986
H     -1.199653   -3.244018    0.496336
H     -2.019342   -0.544819   -0.639230
H     -0.650819   -1.586284   -0.903347
H      0.167346   -1.393157    1.329208
H     -1.177289   -0.378724    1.902576
H      4.706729    0.979128   -0.838309
H      5.518223   -0.039306    0.376269
H      0.686340    1.029460    1.425841
H     -0.657947    1.417709    0.306898
H      5.572174   -0.788124   -2.605927
H      6.185814   -1.694514   -1.191122
H      1.423816    1.459335   -0.879850
H      0.366381    0.085551   -1.482461
H      4.095212   -1.982681   -0.187694
