75

C      9.328375   -0.629612    2.194428
C     -9.735976    1.922245    0.959768
C     -7.608181   -3.548768    1.443959
C      8.358714   -0.683457    0.995267
C      9.164665   -0.454355   -0.227138
C      8.528942   -0.507324   -1.546859
C      7.459621    0.425577   -1.913965
C      6.177100    0.411438   -1.176114
C      5.490986   -0.948703   -1.223648
C      4.214171   -0.871539   -0.449424
C      3.233822    0.150705   -0.975286
C      1.985869    0.105282   -0.085404
C      0.961033    1.092083   -0.537293
C     -0.290341    1.096575    0.307480
C     -1.004338   -0.192069    0.336551
C     -1.485855   -0.728974   -0.949386
C     -2.396559    0.011919   -1.801222
C     -3.733417    0.444955   -1.399388
C     -3.949247    1.383503   -0.293457
C     -5.407462    1.721930   -0.046510
C     -5.864530   -0.159222    1.543266
C     -8.287187    1.616579    1.255330
C     -6.758342   -2.410501    1.031428
C     -6.280669    0.573096    0.298239
N     -7.635913    1.024247    0.384419
O     -7.800470    2.024835    2.481643
O     -6.136964   -2.445483   -0.054530
O     -6.637714   -1.298276    1.832530
H      9.961479    0.262193    2.017013
H      9.910398   -1.562870    2.267949
H      8.731656   -0.422695    3.109499
H    -10.370160    1.433704    1.757015
H    -10.036209    1.540736   -0.030165
H     -9.950068    2.993901    0.986769
H     -8.346028   -3.253730    2.230285
H     -6.978804   -4.351489    1.859990
H     -8.206350   -3.967568    0.615562
H      7.839894   -1.653574    0.966863
H      7.694919    0.175377    1.178241
H     10.048195   -1.157321   -0.179480
H      9.628991    0.577331   -0.121858
H      8.183172   -1.592981   -1.764566
H      9.380722   -0.383209   -2.316671
H      7.867977    1.481079   -1.805298
H      7.200793    0.366141   -3.020987
H      5.462431    1.072029   -1.786571
H      6.151367    0.821502   -0.189044
H      6.150363   -1.683687   -0.725204
H      5.346857   -1.268385   -2.278572
H      3.715591   -1.879661   -0.546885
H      4.474603   -0.675604    0.610588
H      3.632279    1.178312   -0.921139
H      2.921541   -0.122091   -2.001853
H      1.556858   -0.917846   -0.098562
H      2.331312    0.319288    0.941979
H      1.401072    2.116523   -0.531900
H      0.715371    0.888378   -1.618245
H     -0.887163    1.968223   -0.018222
H      0.057171    1.369070    1.348048
H     -0.245281   -0.922697    0.813413
H     -1.805263   -0.206168    1.090174
H     -0.535415   -0.891840   -1.567614
H     -1.819443   -1.818437   -0.856054
H     -2.557709   -0.634495   -2.738566
H     -1.795532    0.861840   -2.288762
H     -4.228251    0.833125   -2.351849
H     -4.411691   -0.446815   -1.181933
H     -3.512708    1.202101    0.672009
H     -3.508859    2.381706   -0.618142
H     -5.849869    2.203056   -0.966708
H     -5.421672    2.470816    0.742678
H     -5.778842    0.444814    2.444594
H     -4.819547   -0.572533    1.359971
H     -6.285833   -0.208187   -0.516648
H     -6.904450    2.505951    2.573520
