44

C      7.062701   -0.784688    0.142622
C     -6.047243   -0.927379    0.082618
C     -2.134858   -0.981934   -1.431934
C      6.279006   -0.244857    1.317745
C     -5.763168    0.381415    0.787133
C      4.973277    0.382827    0.820755
C     -5.290026    1.398512   -0.223450
C      4.236222   -0.736038    0.116908
C     -4.039613    0.965876   -0.916840
C      2.917465   -0.339440   -0.446841
C     -2.886479    0.763647    0.074665
C      1.918927    0.155865    0.553052
C     -1.714686    0.331021   -0.737078
C      0.690279    0.494373   -0.227137
O      0.837600    1.303970   -1.179743
O     -0.562821    0.004660    0.001407
H      6.724489   -1.832756   -0.050615
H      6.807251   -0.185910   -0.749868
H      8.149349   -0.799049    0.342514
H     -5.141654   -1.441669   -0.250447
H     -6.616660   -1.561534    0.775601
H     -6.685823   -0.729520   -0.813284
H     -2.573907   -0.722264   -2.419199
H     -2.812557   -1.522898   -0.757241
H     -1.223192   -1.594070   -1.557902
H      6.086480   -0.970190    2.105043
H      6.863153    0.620736    1.727925
H     -5.083087    0.242768    1.623093
H     -6.736854    0.741783    1.181786
H      5.253846    1.188354    0.120757
H      4.424507    0.816806    1.652788
H     -6.083210    1.495976   -0.984818
H     -5.163966    2.375946    0.257691
H      4.112679   -1.618823    0.769786
H      4.866586   -1.077764   -0.731463
H     -4.204711    0.054731   -1.495643
H     -3.707970    1.764402   -1.593022
H      2.508216   -1.224968   -0.977008
H      3.094552    0.456729   -1.222071
H     -3.158701    0.085705    0.887874
H     -2.660757    1.745617    0.525609
H      1.724681   -0.613808    1.316709
H      2.285176    1.050565    1.113764
H     -1.524500    1.087276   -1.526560
