75

C      8.513310    2.337899    1.987264
C     -7.882681   -0.396524   -2.837977
C     -8.109635    2.000632    3.218972
C      9.343518    1.381306    1.187770
C      8.489513    0.308629    0.503040
C      7.506508    0.972753   -0.429819
C      6.679986   -0.065596   -1.109524
C      5.904805   -0.880826   -0.139714
C      4.955656   -0.075188    0.711222
C      3.921718    0.676857   -0.051237
C      3.070423   -0.253699   -0.859574
C      2.355439   -1.249845   -0.005812
C      1.487173   -2.184731   -0.822843
C      0.433037   -1.443708   -1.597928
C     -0.507710   -0.657083   -0.708189
C     -1.182140   -1.639020    0.213074
C     -2.127708   -0.907623    1.122739
C     -3.215820   -0.158238    0.385434
C     -4.059483   -1.090169   -0.446620
C     -5.134351   -0.372373   -1.181990
C     -6.864462   -0.503079    0.629753
C     -7.640521    0.897418   -2.167435
C     -7.205121    1.187837    2.342193
C     -6.124304    0.369079   -0.318660
N     -6.937367    1.157084   -1.172546
O     -8.312593    1.999199   -2.751172
O     -5.973857    1.408255    2.463821
O     -7.688243    0.257787    1.458307
H      8.586778    3.397622    1.612749
H      7.472308    2.021064    2.141266
H      8.975508    2.377479    3.016726
H     -8.872076   -0.385393   -3.391637
H     -7.144238   -0.611873   -3.637136
H     -7.947232   -1.262972   -2.176582
H     -9.138655    1.692368    2.996660
H     -7.794273    1.834711    4.254298
H     -7.999930    3.052674    2.896888
H     10.111566    0.868134    1.776168
H      9.831984    1.936742    0.364749
H      9.214016   -0.300347   -0.088275
H      8.030745   -0.339204    1.247526
H      6.880967    1.647319    0.226014
H      8.034310    1.642945   -1.150343
H      6.042670    0.344869   -1.924094
H      7.392719   -0.759280   -1.621716
H      5.274559   -1.596402   -0.718886
H      6.562070   -1.454619    0.507815
H      5.501236    0.657486    1.351663
H      4.462015   -0.764261    1.414679
H      3.240568    1.141531    0.720938
H      4.335255    1.512366   -0.647339
H      2.365251    0.389042   -1.438732
H      3.641119   -0.816537   -1.630030
H      3.117424   -1.924504    0.472649
H      1.829688   -0.734922    0.794402
H      2.157349   -2.662066   -1.566142
H      1.097267   -2.974017   -0.181912
H     -0.185775   -2.205795   -2.116247
H      0.897575   -0.830754   -2.387346
H     -0.027421    0.174226   -0.190645
H     -1.296463   -0.261946   -1.413406
H     -1.678851   -2.390760   -0.416077
H     -0.467547   -2.181200    0.855999
H     -2.666328   -1.637462    1.791701
H     -1.606782   -0.216852    1.782713
H     -3.795380    0.406350    1.137191
H     -2.724352    0.598094   -0.253889
H     -3.363522   -1.496942   -1.240003
H     -4.400636   -1.973117    0.110687
H     -5.589827   -1.084633   -1.889784
H     -4.636728    0.409583   -1.820125
H     -6.102339   -0.968384    1.314594
H     -7.427446   -1.325485    0.138506
H     -5.513621    1.092584    0.289650
H     -8.370613    2.885501   -2.261619
