31

C     -0.534075   -1.905204   -0.249985
C      4.515228    0.948964    0.399370
C     -2.885586   -0.271483   -0.677210
C     -1.850892    0.057414    0.371745
C      0.486756   -0.004814    1.035137
C      1.902991   -0.455562    0.762082
C     -4.219866    0.240263   -0.147997
C     -0.466120   -0.413353   -0.056150
C      3.491195    0.710267   -0.627956
N      2.385595    0.112674   -0.462659
O     -4.150028    1.610142    0.059840
O      3.765856    1.192552   -1.920744
H     -0.936301   -2.115339   -1.274239
H      0.430034   -2.414070   -0.168078
H     -1.218160   -2.340305    0.527250
H      5.549535    0.926054   -0.046298
H      4.500753    0.235548    1.224446
H      4.328075    1.982118    0.805383
H     -2.946227   -1.368087   -0.823609
H     -2.640172    0.220434   -1.634411
H     -2.122841   -0.448942    1.300648
H     -1.856669    1.157340    0.504492
H      0.464689    1.080656    1.133602
H      0.128801   -0.477321    1.972875
H      2.023692   -1.544265    0.762970
H      2.516821   -0.074546    1.622518
H     -4.398993   -0.240534    0.824634
H     -5.041509   -0.013651   -0.854131
H     -0.188283    0.045925   -1.034654
H     -4.024300    2.125441   -0.777234
H      2.990004    1.441688   -2.551639
