70

C     -8.581241    0.801241    0.751086
C      7.153716    0.439558    3.377982
C     -7.451064    1.055951   -0.201619
C     -6.150537    1.032592    0.599293
C     -6.011300   -0.306778    1.231139
C     -4.820327   -0.522580    2.060540
C     -3.436051   -0.460588    1.606018
C     -3.030325   -1.430073    0.560269
C     -3.555266   -1.212440   -0.800443
C     -3.013841    0.048601   -1.390717
C     -1.478107    0.057396   -1.538751
C     -1.086730   -1.038939   -2.427248
C      0.316140   -1.236401   -2.812068
C      1.370762   -1.523350   -1.847407
C      1.705855   -0.589891   -0.766126
C      2.091943    0.790043   -1.175644
C      3.255471    0.940726   -2.060970
C      4.572111    0.396099   -1.510179
C      4.870369    1.127107   -0.259035
C      6.139173   -0.801096    0.568009
C      6.924881    1.582068    2.471146
C      6.231575    0.665230    0.303402
N      6.574348    1.512892    1.324879
O      7.361899   -1.330074    1.003636
O      7.147261    2.865978    3.036900
H     -8.810706   -0.282187    0.875481
H     -9.483860    1.345404    0.350458
H     -8.291267    1.201075    1.737512
H      7.112757    0.807368    4.445157
H      8.121454   -0.026787    3.177519
H      6.362952   -0.322497    3.300739
H     -7.416482    0.268971   -0.976389
H     -7.583957    2.051149   -0.646268
H     -6.262462    1.818664    1.381061
H     -5.359047    1.342164   -0.079323
H     -6.311635   -1.167068    0.585070
H     -6.897428   -0.348954    2.002510
H     -4.987640   -1.570375    2.552076
H     -4.938549    0.129617    3.008115
H     -3.148420    0.593533    1.254718
H     -2.768660   -0.595248    2.526509
H     -3.285867   -2.501176    0.893143
H     -1.908084   -1.465412    0.520969
H     -3.366181   -2.127407   -1.415967
H     -4.675322   -1.108077   -0.862942
H     -3.329929    0.908815   -0.803919
H     -3.395206    0.079363   -2.449045
H     -1.264281    1.078372   -1.931688
H     -1.046842    0.003312   -0.537873
H     -1.676608   -0.948619   -3.397205
H     -1.525903   -1.994765   -1.981415
H      0.281860   -2.107833   -3.561118
H      0.678432   -0.389593   -3.474709
H      1.080934   -2.503110   -1.327560
H      2.348860   -1.829168   -2.337023
H      2.660792   -1.036730   -0.282176
H      1.030266   -0.537934    0.095248
H      2.249010    1.393314   -0.245262
H      1.190193    1.279967   -1.648860
H      3.164133    0.550051   -3.070866
H      3.449191    2.049453   -2.168066
H      5.327485    0.580911   -2.296781
H      4.445568   -0.701004   -1.367168
H      4.867968    2.239669   -0.396614
H      4.070781    0.917611    0.486659
H      5.986810   -1.316753   -0.429882
H      5.293256   -1.101344    1.197685
H      6.984677    0.762087   -0.547056
H      7.157114   -1.961708    1.727608
H      6.769125    3.679606    2.542907
