69

C      9.731607    0.762021   -1.905524
C     -7.669513   -3.452295    0.100540
C     -7.545439    4.084922   -1.858760
C      9.671162   -0.710411   -1.527266
C      9.234949   -0.911507   -0.109139
C      7.853600   -0.322722    0.135827
C      6.837414   -0.963365   -0.740168
C      5.472209   -0.377476   -0.503992
C      4.967711   -0.543556    0.898602
C      3.596260    0.069066    1.057528
C      2.597007   -0.563429    0.153490
C      1.209909    0.029436    0.309650
C      0.674073   -0.134195    1.715116
C     -0.706350    0.456199    1.856714
C     -1.713916   -0.185421    0.933964
C     -3.042417    0.496973    1.179476
C     -4.132660   -0.075258    0.297909
C     -5.428479    0.651643    0.596232
C     -7.797360    0.907608    0.115322
C     -7.509794   -2.090380   -0.443286
C     -7.599587    2.624075   -1.555435
C     -6.563643    0.115559   -0.264352
N     -6.795391   -1.247386    0.169041
O     -8.142976   -1.749257   -1.617344
O     -7.517430    1.794294   -2.483505
O     -7.741181    2.254194   -0.232566
H      9.599611    1.422367   -1.029422
H      8.955418    0.999180   -2.635384
H     10.732913    0.997269   -2.350582
H     -6.684037   -3.959659    0.021938
H     -7.849172   -3.348862    1.210512
H     -8.485028   -4.018393   -0.371263
H     -6.501496    4.431468   -1.693067
H     -8.190993    4.603848   -1.130734
H     -7.881439    4.272028   -2.899632
H     10.717031   -1.138901   -1.594960
H      9.033238   -1.269695   -2.207031
H      9.221699   -1.989769    0.095017
H      9.959076   -0.405391    0.567997
H      7.590655   -0.481153    1.212298
H      7.930703    0.756278   -0.047268
H      7.113297   -0.824147   -1.818563
H      6.780142   -2.072114   -0.585899
H      4.764954   -0.866894   -1.216814
H      5.493427    0.709786   -0.752498
H      5.688535   -0.089511    1.613798
H      4.951316   -1.636532    1.104889
H      3.286934    0.093856    2.118845
H      3.723726    1.156815    0.777390
H      2.600437   -1.663479    0.257980
H      2.874741   -0.338228   -0.913408
H      0.535986   -0.535982   -0.366401
H      1.216348    1.075543   -0.000610
H      1.308196    0.381838    2.450545
H      0.614785   -1.201345    2.001648
H     -1.039065    0.262449    2.897205
H     -0.730665    1.548169    1.706730
H     -1.429636   -0.008863   -0.125784
H     -1.791074   -1.271978    1.094547
H     -3.318173    0.303154    2.230041
H     -2.892800    1.574732    0.977617
H     -3.832648    0.103096   -0.755146
H     -4.226088   -1.161532    0.438339
H     -5.651741    0.507699    1.670620
H     -5.271049    1.724043    0.417140
H     -8.671492    0.464587   -0.442939
H     -8.023867    0.746880    1.180244
H     -6.296855    0.190897   -1.319585
H     -7.865617   -0.962888   -2.195565
