33

C     -4.833719    1.652209   -0.623833
C     -3.551317   -0.831428    0.255607
C      5.791559   -1.035707    0.239879
C      1.301175    0.504752    1.172769
C      1.779853   -0.635034   -0.880125
C      2.645722    0.363218    1.533627
C      3.097819   -0.766637   -0.512076
C     -1.416389    0.376598    0.703699
C     -3.422538    1.610244   -0.167834
C      0.884180    0.007077   -0.023622
C      3.525700   -0.265297    0.696793
C     -0.521909    0.110874   -0.492201
N     -2.804609    0.405705    0.257411
O     -2.796831    2.707004   -0.177759
O     -0.936998   -1.129665   -1.006578
O      4.849853   -0.392713    1.076149
H     -5.478129    1.787200    0.270671
H     -4.993233    2.477731   -1.347896
H     -5.055294    0.672419   -1.113105
H     -3.537199   -1.248689   -0.790035
H     -3.088652   -1.537644    0.953443
H     -4.603960   -0.657747    0.587282
H      6.674071   -1.271065    0.870878
H      5.389084   -2.005083   -0.152570
H      6.085289   -0.411260   -0.630809
H      0.628493    1.005317    1.854594
H      1.427132   -1.026583   -1.833150
H      2.957729    0.767443    2.492539
H      3.792379   -1.272969   -1.193049
H     -1.210082    1.380052    1.140631
H     -1.238513   -0.404291    1.458741
H     -0.594481    0.889375   -1.255380
H     -0.746187   -1.825405   -0.356620
