35

C      4.953360    0.611230    1.266873
C      3.481638   -1.200142   -0.440925
C     -3.903070   -1.594553    1.744860
C     -1.034858    1.142637   -1.225974
C     -2.335250    1.392897   -1.658118
C     -1.852206   -0.320636    0.435621
C      1.649325    0.462936   -0.711184
C      3.640658    1.014795    0.701677
C     -0.785919    0.294438   -0.188520
C     -3.395876    0.779055   -1.034835
C      0.612279    0.018816    0.285541
C     -3.144499   -0.091045    0.028973
N      2.948018    0.108028   -0.127745
N     -4.755805    1.000972   -1.439261
O      3.137266    2.139641    0.945100
O      0.754378   -1.377804    0.467211
O     -5.725528    0.053173   -1.244276
O     -5.013196    2.098524   -1.977513
O     -4.191491   -0.726207    0.679076
H      5.477107    1.460856    1.739455
H      5.553333    0.199307    0.436060
H      4.760253   -0.221456    1.970849
H      4.261265   -1.077984   -1.240039
H      3.943714   -1.608420    0.493690
H      2.673190   -1.866116   -0.767802
H     -3.264261   -2.422357    1.320192
H     -4.823771   -2.105484    2.100279
H     -3.347776   -1.122491    2.558779
H     -0.202237    1.632357   -1.726228
H     -2.505415    2.070367   -2.483616
H     -1.613478   -0.983716    1.251193
H      1.547594   -0.015600   -1.688181
H      1.608966    1.567992   -0.850033
H      0.762236    0.533923    1.247972
H      0.130058   -1.847931   -0.112923
