33

C     -2.808538   -0.599323   -1.302350
C     -2.269430    1.898883    0.021282
C      2.103316    0.663459   -2.863481
C      1.931956   -2.463682    0.732787
C      1.297030   -1.529973    1.495303
C      2.301221   -2.160798   -0.559426
C      1.370338    0.019319   -0.255393
C     -1.155961    0.673685    1.938690
C     -2.111458   -0.584508    0.002016
C      0.988979   -0.262864    1.048434
C      2.014933   -0.898561   -1.059663
C      0.317689    0.768109    1.806769
N     -1.842439    0.652825    0.659511
O     -1.780348   -1.692845    0.482024
O      0.893716    0.783839    3.100145
O      2.402409   -0.628764   -2.367410
H     -2.345538   -1.312558   -2.009175
H     -3.874595   -0.887487   -1.211790
H     -2.698180    0.414607   -1.774555
H     -2.122685    2.713192    0.738338
H     -1.624879    2.092990   -0.860362
H     -3.332235    1.807182   -0.264111
H      1.002400    0.870383   -2.755819
H      2.590071    1.383511   -2.153993
H      2.437084    0.825371   -3.894733
H      2.146879   -3.436944    1.134075
H      1.016329   -1.781095    2.498536
H      2.808298   -2.902500   -1.172414
H      1.176983    0.988895   -0.710710
H     -1.518959   -0.176978    2.540190
H     -1.513889    1.585248    2.465820
H      0.566622    1.764532    1.386090
H      1.632880    1.412850    3.165375
