30

C     -1.186436   -4.250281   -0.451050
C     -1.526999    3.884656    0.049640
C      3.754227    0.624528    0.254346
C     -1.655852    0.069616    0.449724
C      0.748212   -0.217495   -0.275485
C     -0.970062   -2.878899    0.079523
C     -1.684414    2.441164   -0.277827
C      2.864758    1.785339    0.023459
C     -0.695542   -0.523072   -0.535053
N     -0.891163   -1.911524   -0.714160
O     -0.861189   -2.708205    1.439143
O     -1.969507    2.079480   -1.448281
O      3.329006    2.900486    0.053532
O     -1.528862    1.441285    0.667632
S      1.129773    1.551011   -0.295607
H     -1.755258   -4.226364   -1.415309
H     -0.185141   -4.707013   -0.591630
H     -1.723350   -4.900824    0.297762
H     -1.742414    4.104987    1.102496
H     -2.261370    4.433454   -0.573223
H     -0.508743    4.251963   -0.171944
H      3.496542   -0.252421   -0.377193
H      4.816698    0.857659    0.041019
H      3.702752    0.337938    1.331600
H     -2.675105   -0.222449    0.103694
H     -1.516176   -0.420796    1.435533
H      1.309639   -0.652880   -1.154002
H      1.184366   -0.674805    0.612655
H     -0.926623    0.013170   -1.518922
H     -0.071766   -2.229709    1.857930
