69

C     -9.043364    1.339016    0.424096
C      3.991237    3.010319    2.184925
C      8.414780   -2.476694   -1.575191
C     -8.243187    1.343991    1.731559
C     -7.303507    0.147027    1.648865
C     -6.429804    0.395442    0.410837
C     -5.473989   -0.743396    0.259709
C     -4.615126   -0.551369   -0.940982
C     -3.812099    0.697971   -0.842208
C     -2.926429    0.664843    0.371377
C     -1.964426   -0.484070    0.377032
C     -1.071163   -0.405453   -0.814753
C     -0.061439   -1.527199   -0.873746
C      0.825003   -1.530926    0.323624
C      1.568790   -0.223877    0.407503
C      2.433333    0.042595   -0.804991
C      3.483686   -0.974318   -1.047380
C      4.509733   -1.154122    0.022636
C      6.009244    0.469226   -1.020981
C      4.943796    2.011739    1.659427
C      7.740974   -1.297858   -0.925964
C      5.313291    0.087227    0.250132
N      4.556300    1.122228    0.857078
O      6.261140    2.070003    2.061357
O      8.134605   -0.915546    0.199408
O      6.707096   -0.630164   -1.532948
H     -8.564126    1.997614   -0.326364
H     -9.108363    0.312764    0.046149
H    -10.060772    1.717447    0.673630
H      4.001010    3.955685    1.581671
H      2.926899    2.644257    2.100619
H      4.162821    3.257566    3.242587
H      9.061094   -2.980386   -0.830450
H      7.662705   -3.196232   -1.957026
H      9.041698   -2.156999   -2.421911
H     -8.900880    1.282550    2.600072
H     -7.689766    2.294253    1.741054
H     -6.687425    0.033383    2.548331
H     -7.858482   -0.781786    1.431337
H     -5.942556    1.362421    0.549161
H     -7.134284    0.464856   -0.446491
H     -4.889337   -0.807668    1.203315
H     -5.991653   -1.729432    0.184313
H     -5.321538   -0.412278   -1.814294
H     -3.951107   -1.420032   -1.144670
H     -4.459880    1.614606   -0.737578
H     -3.151317    0.837301   -1.734963
H     -3.502145    0.673453    1.320513
H     -2.385010    1.655709    0.376232
H     -2.495796   -1.466594    0.414232
H     -1.387948   -0.457335    1.344127
H     -1.726697   -0.560442   -1.711975
H     -0.564459    0.556847   -0.857884
H     -0.560449   -2.525101   -0.912189
H      0.492085   -1.429365   -1.827910
H      0.259601   -1.639257    1.265250
H      1.549981   -2.378330    0.325841
H      0.876140    0.613072    0.548916
H      2.227969   -0.227020    1.324436
H      1.798924    0.107733   -1.733849
H      2.865056    1.044932   -0.699351
H      3.978245   -0.707707   -2.023257
H      3.061306   -1.992398   -1.249161
H      4.019843   -1.518618    0.961102
H      5.254015   -1.945787   -0.284371
H      6.739862    1.298231   -0.873526
H      5.292396    0.811066   -1.812071
H      6.124710   -0.208472    0.979941
H      6.989158    1.518853    1.636198
