33

C     -4.829725    0.820463    0.637475
C     -3.416143   -0.605171   -1.421393
C      5.189285    1.382262    0.872215
C      2.899390   -1.574141   -0.984161
C      1.537582   -1.548216   -0.781779
C      3.633974   -0.583358   -0.357601
C      1.679287    0.357964    0.594902
C     -1.248899    0.373136   -0.693799
C     -3.366289    0.963833    0.493834
C      0.895842   -0.607895   -0.006825
C      3.048093    0.386458    0.431431
C     -0.560859   -0.677122    0.138613
N     -2.691965    0.251962   -0.527340
O     -2.733910    1.711661    1.273752
O     -0.903524   -0.485233    1.497275
O      3.797040    1.377541    1.056267
H     -5.193028    1.408293    1.492817
H     -5.066513   -0.247060    0.823907
H     -5.356343    1.182453   -0.267461
H     -4.339932   -0.984778   -0.934495
H     -2.842497   -1.503347   -1.728813
H     -3.721986   -0.092579   -2.354174
H      5.667983    2.242891    1.375576
H      5.619017    0.469047    1.334006
H      5.429669    1.359174   -0.222434
H      3.366886   -2.328594   -1.599552
H      0.958419   -2.326520   -1.273689
H      4.719540   -0.537328   -0.470069
H      1.176045    1.094682    1.202131
H     -0.924855    1.371562   -0.313419
H     -0.933003    0.289004   -1.741469
H     -0.899221   -1.693091   -0.117680
H     -0.589360   -1.247953    2.041159
