32

C     -4.750812    1.127878    0.104090
C     -3.202407   -1.364066   -0.037253
C      1.799105    1.323373    0.156037
C      3.132006    1.346944   -0.173289
C      1.799065   -1.006358   -0.162872
C     -1.187316   -0.083553   -0.712635
C     -3.310323    1.107780   -0.274256
C      1.118754    0.131223    0.162708
C      3.827732    0.171420   -0.507626
C      3.164343   -1.028565   -0.506860
C     -0.320202    0.069611    0.511362
N     -2.582228   -0.096664   -0.338292
N      5.191105    0.312478   -0.834094
O     -2.738047    2.213973   -0.543247
O      3.741542   -2.244269   -0.820405
O     -0.544500   -0.993131    1.378860
O      6.080574   -0.685487   -0.617991
O      5.599389    1.382566   -1.337550
H     -4.816603    0.693088    1.122054
H     -5.349519    0.473988   -0.585207
H     -5.126469    2.167294    0.127358
H     -4.289182   -1.268521   -0.280841
H     -2.734252   -2.188553   -0.617157
H     -3.097596   -1.517639    1.072591
H      1.295950    2.256459    0.409454
H      3.673505    2.297077   -0.178288
H      1.311584   -1.982081   -0.174359
H     -0.885520   -1.052069   -1.196697
H     -0.947654    0.694666   -1.471227
H     -0.582148    1.014872    1.029212
H      4.683499   -2.322921   -1.081394
H      0.046627   -0.950810    2.169169
