37

C     -5.142301    1.401441    0.364123
C     -3.962324   -1.090065   -0.494369
C      5.226765   -2.221862   -0.490991
C      2.984907    2.813893   -0.110711
C      1.112089   -1.757329    0.269254
C      2.450378   -1.938423    0.022188
C      1.348574    0.583416    0.208740
C     -1.680656    0.027249   -0.617299
C     -3.684167    1.275865    0.067631
C      0.525856   -0.509732    0.369198
C     -0.917858   -0.333965    0.634540
C      3.260277   -0.830052   -0.135965
C      2.717084    0.432965   -0.044136
N     -3.085387    0.056873   -0.356050
O     -3.008400    2.343035    0.221275
O     -1.188534    0.620087    1.600438
O      4.612015   -0.951000   -0.385938
O      3.530618    1.528392   -0.202867
H     -5.305599    1.803614    1.397288
H     -5.639171    2.106495   -0.340329
H     -5.664973    0.438758    0.320855
H     -4.691335   -0.935990   -1.322983
H     -4.548290   -1.273186    0.436061
H     -3.423674   -2.020460   -0.722061
H      5.013174   -2.623496   -1.512478
H      6.344691   -2.087153   -0.416165
H      4.861863   -2.934572    0.268390
H      2.339153    2.985757   -0.997073
H      3.784221    3.602310   -0.104098
H      2.371752    2.967657    0.809041
H      0.490147   -2.634193    0.390888
H      2.845153   -2.945676   -0.043930
H      0.963247    1.586782    0.272339
H     -1.347147    1.052657   -0.929902
H     -1.466298   -0.658601   -1.454325
H     -1.322765   -1.336649    0.958979
H     -0.703083    1.455159    1.425652
