30

C     -0.760673   -1.025135    1.253602
C      4.144991    1.406044    0.675494
C     -2.882854    0.869553    0.356065
C     -1.959842    0.132401   -0.587386
C      0.263242   -0.861214   -0.982225
C     -4.188023    1.092010   -0.414263
C      1.633581   -1.136379   -0.447733
C     -0.610201   -0.165966    0.027473
C      3.516327    0.101222    0.303592
Cl    -5.284567    1.965470    0.700777
N      2.293680    0.104885   -0.074722
O      4.288061   -1.056344    0.385562
H     -1.841419   -1.293912    1.442524
H     -0.428050   -0.473586    2.161619
H     -0.230967   -2.015993    1.157815
H      4.859987    1.282417    1.513038
H      3.376615    2.126171    1.011232
H      4.656243    1.866767   -0.187835
H     -3.144152    0.239227    1.219541
H     -2.456688    1.843498    0.652747
H     -1.865079    0.636687   -1.558272
H     -2.449645   -0.848307   -0.794304
H     -0.245617   -1.823858   -1.233527
H      0.346172   -0.281099   -1.922715
H     -3.996472    1.762897   -1.284523
H     -4.647357    0.140577   -0.680142
H      1.638015   -1.839337    0.399367
H      2.268004   -1.616140   -1.235485
H     -0.087549    0.791308    0.316923
H      3.794238   -1.923865    0.507667
