32

C     -2.242374    1.950559   -0.770193
C     -3.085190   -0.233509    0.923332
C      1.872864   -1.487702   -0.310610
C      2.900410   -0.603208   -0.541621
C      0.793615    0.176138    0.999965
C     -1.468286   -1.799660   -0.154484
C     -1.646649    0.596266   -0.901460
C      0.801288   -1.094208    0.472316
C      2.925998    0.676005   -0.029597
C      1.847393    1.054169    0.751065
C     -0.303104   -2.033085    0.741504
N     -2.047527   -0.482262   -0.068788
N      4.000749    1.544466   -0.294229
O     -0.767637    0.453674   -1.789127
O      1.834238    2.340776    1.288620
O     -0.641780   -1.878737    2.101412
O      5.253517    1.046970   -0.468662
O      3.808929    2.758704   -0.368604
H     -2.575265    2.120103    0.264485
H     -1.508971    2.738352   -1.089229
H     -3.076092    2.008076   -1.506428
H     -3.415441   -1.183351    1.403864
H     -2.699830    0.452748    1.696064
H     -3.963357    0.271488    0.448777
H      1.847975   -2.501119   -0.713719
H      3.735358   -0.931837   -1.160428
H     -0.016425    0.510552    1.606995
H     -1.143558   -1.954985   -1.212204
H     -2.304290   -2.517737    0.019038
H      0.050249   -3.088993    0.609686
H      1.075700    2.661578    1.861967
H      0.157494   -1.570232    2.594911
