37

C      4.073828    1.399999   -1.017002
C      5.351742    0.742888    1.122079
C     -0.433557   -1.949542   -1.179858
C     -5.942758    0.912688    1.243820
C      2.195850   -0.616512   -0.502882
C      3.332848   -0.420698    0.443372
C      0.928403   -0.410907    0.268703
C     -1.498828   -0.265746    0.307439
C     -2.811043   -0.294183   -0.423039
C      4.213247    0.538268    0.185610
C     -0.317501   -0.579402   -0.571498
C     -4.941156    0.624299    0.210082
N     -3.848923    0.024762    0.544963
O     -5.106396    0.968172   -1.139228
H      3.085821    1.901226   -0.933131
H      4.872128    2.164055   -0.989514
H      4.189394    0.831134   -1.964040
H      6.301188    0.621499    0.558248
H      5.355198   -0.033255    1.905723
H      5.261546    1.725805    1.603557
H     -0.653346   -1.914818   -2.277852
H     -1.326350   -2.443342   -0.726828
H      0.445511   -2.601032   -0.968893
H     -6.020430    0.027637    1.911929
H     -6.928038    1.020021    0.756555
H     -5.754582    1.853510    1.791366
H      2.234402    0.094717   -1.345142
H      2.241030   -1.643627   -0.873572
H      3.447637   -1.027102    1.307094
H      0.888409    0.584453    0.740956
H      0.843329   -1.166912    1.095186
H     -1.515085   -1.061493    1.103258
H     -1.323948    0.680302    0.842103
H     -2.814527    0.480613   -1.216695
H     -3.007800   -1.294151   -0.813234
H     -0.276869    0.142232   -1.439002
H     -4.740375    0.384443   -1.882459
