23

C     -3.369579   -0.445418   -0.489123
C     -2.638494    0.435142   -1.260613
C     -2.754374   -1.076169    0.575361
C     -1.299538    0.676054   -0.959799
C     -1.424822   -0.846384    0.885850
C      3.485697   -0.348684    0.259372
C      2.469558   -0.602229   -0.810755
C      0.832249    1.679055    0.992429
C     -0.719856    0.036650    0.099531
C      0.725453    0.324865    0.389065
O      4.455136   -1.056573    0.367228
O      0.282097    1.968124    2.047178
O      1.439785    0.302960   -0.777926
H     -4.408499   -0.626817   -0.729435
H     -3.099335    0.929424   -2.085231
H     -3.311859   -1.768417    1.189628
H     -0.716070    1.357581   -1.548984
H     -0.979008   -1.359333    1.727041
H      3.373231    0.471584    0.956489
H      3.001102   -0.471625   -1.781914
H      2.145552   -1.639679   -0.702892
H      1.405600    2.472185    0.520294
H      1.105975   -0.412296    1.137205
