18

C      2.505321   -0.540874    0.216529
C      0.788379    1.814757   -1.428052
C     -1.201170   -0.655773   -0.459466
C     -2.544064   -0.776403    0.139915
C      0.689526    0.563776   -0.649515
O      1.645120    2.625249   -1.127665
O     -3.249648   -1.774000   -0.127183
O     -3.081699    0.173603    1.001823
O      1.658781    0.557257    0.338905
O     -0.565461    0.512008   -0.051132
H      3.253854   -0.465408    1.052449
H      3.055904   -0.540732   -0.743274
H      1.940968   -1.467355    0.404245
H      0.125975    2.045072   -2.262364
H     -1.267025   -0.697584   -1.581518
H     -0.544473   -1.507612   -0.168109
H      0.852904   -0.330608   -1.289070
H     -4.063190    0.464628    0.895613
