30

C     -1.088479   -1.377646    1.185574
C      1.945927    1.086790    0.157332
C      1.370795   -0.768881   -1.140886
C      3.280408    0.819753   -0.025730
C      2.713992   -1.044518   -1.329796
C     -0.438378    0.677212   -0.144271
C     -1.052481    0.116006    1.112762
C      0.948500    0.304700   -0.391669
C      3.686050   -0.248598   -0.771048
C     -3.367351    0.498898    0.494539
C     -4.706082    1.105225    0.791836
F     -4.661570    1.810742    1.985064
F     -5.669220    0.131776    0.958590
F     -5.059894    1.877687   -0.280540
N     -2.375735    0.629864    1.262563
N      5.074460   -0.492847   -0.937898
O     -3.271035   -0.225021   -0.685294
O      5.533003   -1.554250   -1.678138
O      5.921140    0.250463   -0.416362
H     -2.135525   -1.694109    1.430590
H     -0.827595   -1.882324    0.234741
H     -0.370070   -1.784697    1.939397
H      1.678718    1.962235    0.768232
H      0.607483   -1.388504   -1.582119
H      4.030507    1.449516    0.416204
H      3.054943   -1.888180   -1.918310
H     -1.060460    0.452133   -1.019351
H     -0.461362    1.802102   -0.015029
H     -0.481656    0.480069    2.016590
H     -2.819034   -1.105596   -0.772426
