38

C      5.404673    0.617514   -1.006686
C     -5.351565   -0.866062   -1.722409
C     -4.074787    3.072320    0.991596
C      0.364643   -1.594612   -0.288213
C     -0.823938   -1.556103   -0.961766
C     -0.126616    0.563138    0.635112
C      3.134837   -0.493301    0.216583
C      5.476433   -0.183403    0.242228
C     -4.048236   -0.919477   -1.012560
C     -3.182586    1.862314    0.996518
C      0.708157   -0.525906    0.512315
C      2.015611   -0.608678    1.230608
C     -1.647955   -0.457327   -0.827215
C     -1.333800    0.627302   -0.034925
N      4.426630   -0.686500    0.791577
O      6.705898   -0.403817    0.845749
O     -4.026623   -1.472488    0.106385
O     -3.308702    0.963692    1.870349
O      2.087993   -1.890023    1.769634
O     -2.880454   -0.399087   -1.516038
O     -2.204815    1.695331    0.054279
H      4.813863    0.081877   -1.797387
H      4.962300    1.609481   -0.860508
H      6.420586    0.734063   -1.432883
H     -5.393451   -0.049373   -2.468338
H     -5.425511   -1.823932   -2.316074
H     -6.202858   -0.867959   -1.036310
H     -4.317288    3.298638   -0.061469
H     -4.997709    2.908563    1.558931
H     -3.468970    3.914518    1.390914
H      1.053928   -2.455013   -0.367823
H     -1.095420   -2.392600   -1.589860
H      0.184452    1.377778    1.274117
H      3.084060    0.537883   -0.206614
H      2.979176   -1.276192   -0.557431
H      2.107352    0.111692    2.045031
H      6.742254   -0.673788    1.820992
H      1.238438   -2.380461    1.711593
