36

C     -2.432151   -0.341057    1.506643
C      5.375583   -0.515233   -1.193369
C      0.479535   -1.248696    0.369060
C      0.819974    0.980584   -0.297485
C      1.789840   -1.308126    0.858213
C      2.119200    0.942301    0.180165
C     -1.390551    0.042203   -0.751396
C     -2.333574    0.562013    0.306136
C     -0.013061   -0.100737   -0.212694
C      2.589055   -0.205495    0.753883
C     -4.520668    0.290370   -0.739696
C     -5.790037    0.957603   -1.097090
F     -6.886933    0.351564   -0.501579
F     -6.002512    0.957193   -2.467839
F     -5.803730    2.277572   -0.684186
N     -3.617921    0.919294   -0.151436
N      3.913319   -0.245283    1.241281
O     -4.355143   -1.037717   -1.068630
O      5.049168    1.831531    0.069476
O      6.521170    0.171417    1.091500
S      5.228627    0.379075    0.336983
H     -2.284295   -1.409412    1.294949
H     -1.665387   -0.065474    2.288342
H     -3.410017   -0.150837    2.005757
H      4.716338   -0.142682   -1.978539
H      6.419504   -0.508357   -1.575988
H      5.109010   -1.590483   -1.017167
H     -0.173152   -2.112845    0.438919
H      0.459776    1.892343   -0.748539
H      2.142896   -2.220055    1.306771
H      2.713597    1.846673    0.072792
H     -1.380021    0.649342   -1.654218
H     -1.711039   -0.992675   -1.020609
H     -1.856515    1.517238    0.696461
H      4.089777   -0.664680    2.172363
H     -3.909664   -1.708474   -0.423036
