45

C      2.937547    0.547178   -2.797278
C     -3.616039   -2.115329   -0.627234
C     -1.509663    4.475143   -0.732715
C      2.067884   -3.587542    2.110417
C     -2.586225   -1.843630   -1.488313
C     -3.612169   -1.535329    0.610794
C     -1.671235    4.102945    0.583186
C     -1.008005    3.532156   -1.594928
C      2.112352   -2.422601    2.847753
C      1.647547   -3.501355    0.802821
C     -1.573310   -0.996765   -1.092617
C     -2.583687   -0.687538    0.986658
C     -1.349356    2.844906    1.033540
C     -0.677501    2.248204   -1.145060
C      1.748316   -1.211349    2.295502
C      1.290526   -2.292385    0.271677
C      2.634018    0.377809   -1.331457
C     -1.527799   -0.388523    0.147595
C     -0.845536    1.892922    0.175825
C      1.322991   -1.111456    0.979184
C     -0.488982    0.509720    0.607763
C      0.930285    0.176872    0.351337
N      1.418940    0.331193   -0.975635
O      3.624023    0.272243   -0.369233
H      2.714046   -0.392213   -3.342961
H      2.363386    1.408722   -3.191996
H      4.012726    0.764909   -2.962791
H     -4.404603   -2.777566   -0.941627
H     -1.776590    5.474695   -1.038570
H      2.354289   -4.551154    2.539694
H     -2.585169   -2.300381   -2.469007
H     -4.443976   -1.771852    1.269715
H     -2.069229    4.818661    1.316547
H     -0.877042    3.818745   -2.638343
H      2.438241   -2.467321    3.872568
H      1.612702   -4.413178    0.225529
H     -0.791056   -0.808891   -1.786403
H     -2.668998   -0.274395    1.991963
H     -1.478348    2.550380    2.080052
H     -0.299212    1.599226   -1.918233
H      1.798979   -0.332924    2.906577
H      0.977054   -2.273248   -0.740257
H     -0.592268    0.565080    1.746929
H      1.526964    0.947559    0.945491
H      3.503181    0.797657    0.485541
