36

C     -1.922815    0.786486   -1.429130
C      4.992225    0.350080    1.446815
C      0.624507   -0.945793    0.758855
C      0.300809   -1.201586   -1.572470
C      2.007580   -0.879784    0.536725
C      1.655758   -1.135812   -1.774632
C     -1.668911   -1.185503   -0.013865
C     -2.206535    0.257132   -0.022788
C     -0.218674   -1.106698   -0.305779
C      2.565613   -0.970536   -0.718864
C     -4.550649    0.654159    0.781816
C     -4.750107    2.060544    1.256676
F     -5.115588    2.073755    2.592103
F     -3.567816    2.728632    1.140430
F     -5.748039    2.619222    0.496474
N     -3.504766    0.250172    0.356013
N      3.953647   -0.926504   -0.972547
O     -5.663667   -0.223950    0.846812
O      4.344437    1.640140   -0.758301
O      6.303065    0.262378   -0.925268
S      4.929596    0.303598   -0.297337
H     -2.467903    1.757857   -1.512633
H     -2.280016    0.082238   -2.177941
H     -0.845950    0.964224   -1.499935
H      4.166910    0.983686    1.827072
H      5.979030    0.785502    1.749910
H      4.951275   -0.668143    1.880024
H      0.284931   -0.866147    1.787831
H     -0.369797   -1.330592   -2.410859
H      2.644268   -0.756536    1.399432
H      2.114129   -1.207899   -2.773360
H     -2.220215   -1.782790   -0.751282
H     -1.834495   -1.581563    1.011079
H     -1.575130    0.857263    0.687749
H      4.363730   -1.665082   -1.580561
H     -5.670439   -0.982156    0.173711
