41

C      6.150376    0.118298   -1.345154
C     -5.867812   -2.203914   -0.547331
C     -4.683436    3.011636    0.898458
C      4.677875    0.551675    1.127836
C     -0.004939   -1.441270    0.085607
C     -1.315738   -1.824514    0.259985
C     -0.749093    0.793711   -0.198980
C      2.716876   -0.682952    0.127656
C      4.764101   -0.393017   -1.195640
C     -4.454819   -1.748310   -0.701556
C     -3.558295    2.017133    1.019664
C      0.309057   -0.123451   -0.147972
C      1.707026    0.336292   -0.342910
C     -2.349844   -0.924939    0.209591
C     -2.060875    0.408570   -0.024181
N      4.069310   -0.168616    0.018406
O      4.244717   -1.004930   -2.135761
O     -3.901180   -1.704909   -1.827499
O     -3.025171    1.795731    2.133499
O      1.848063    1.482795    0.447712
O     -3.683257   -1.350125    0.392502
O     -3.093565    1.334750   -0.078823
H      6.877124   -0.714120   -1.172740
H      6.283401    0.957148   -0.660015
H      6.227755    0.521020   -2.384714
H     -5.837859   -3.074402    0.144520
H     -6.506245   -1.427886   -0.091599
H     -6.219160   -2.566608   -1.514732
H     -4.891230    3.168091   -0.184123
H     -4.349170    3.974692    1.301776
H     -5.598124    2.653876    1.389623
H      5.655637    0.079321    1.368484
H      4.031929    0.470818    2.015198
H      4.846983    1.591448    0.823806
H      0.814629   -2.158358    0.127890
H     -1.542500   -2.860138    0.441747
H     -0.474217    1.817750   -0.383144
H      2.530935   -0.940811    1.186532
H      2.644628   -1.630085   -0.456037
H      1.922555    0.616988   -1.385687
H      1.843556    1.241614    1.401471
