73

C     -5.591469   -4.285659    1.588711
C     -0.319330    4.321489   -0.005634
C     -1.757743    3.413939    1.624351
C     -1.034633    5.498482    0.054862
C     -2.465526    4.589245    1.679044
C     -4.082813    1.700734   -0.372774
C     -2.718815    1.570304   -0.944098
C      0.042869    1.958763    0.785823
C     -1.540100   -1.330309    1.046634
C     -5.961316    0.349645    0.335188
C      0.601364   -2.496497    0.692817
C     -4.336602   -1.842019    0.684759
C      1.658444   -0.309211   -0.573239
C      6.372816   -2.662579   -2.303879
C     -0.677673    3.248188    0.790703
C     -4.596450    0.401304    0.091475
C     -0.141533   -1.376114    0.542062
C     -2.125392    5.678883    0.890523
C     -3.751709   -0.662065    0.251916
C      0.366092   -0.276687   -0.084547
C     -0.474091    0.958743   -0.219495
C     -2.327042   -0.603163   -0.007405
C     -6.513259   -0.815636    0.758477
C      1.880337   -2.525126    0.208204
C      7.548538   -1.914177   -1.729760
C     -5.711885   -1.916714    0.936664
C      2.471154   -1.441856   -0.445177
C      7.134717   -0.562176   -1.177543
C      5.847038   -0.832392   -0.423592
C      4.792124   -1.137558   -1.479115
N     -1.844946    0.721729   -0.239022
O     -2.850817    6.848830    0.962694
O     -7.886784   -0.938450    1.023681
O      2.630880   -3.670550    0.366005
O      8.612579   -1.785382   -2.616831
O      8.123906   -0.063817   -0.341137
O      5.405001    0.287078    0.276136
O     -6.298443   -3.091003    1.369058
O      5.263321   -1.921779   -2.515589
O      3.666606   -1.483554   -0.892957
H     -6.210331   -5.002831    2.189254
H     -5.341524   -4.787296    0.617795
H     -4.624695   -4.132860    2.111271
H      0.533158    4.211073   -0.673717
H     -2.057050    2.595942    2.254331
H     -0.747277    6.329020   -0.568861
H     -3.306822    4.699167    2.337729
H     -4.760699    2.013255   -1.208449
H     -4.190789    2.422629    0.462205
H     -2.847993    1.118292   -1.976316
H     -2.308106    2.561899   -1.123352
H      1.112511    2.184233    0.537093
H      0.045254    1.556231    1.818471
H     -1.576610   -0.862623    2.036384
H     -1.934297   -2.356935    1.146506
H     -6.608027    1.212857    0.199750
H      0.171126   -3.354268    1.192974
H     -3.809512   -2.765330    0.849414
H      2.096922    0.537470   -1.075536
H      6.095360   -3.562264   -1.697579
H      6.702843   -3.067901   -3.284400
H     -0.169236    1.376982   -1.227346
H     -2.118096   -1.167589   -0.968254
H      7.909692   -2.505361   -0.862252
H      6.888250    0.108453   -2.017681
H      6.039616   -1.706615    0.218232
H      4.652095   -0.113083   -1.979404
H     -3.654946    7.063857    0.398893
H     -8.449431   -0.119632    0.884999
H      2.218547   -4.460688    0.835661
H      9.369513   -2.396338   -2.389969
H      7.753947    0.485869    0.396313
H      5.717189    0.281500    1.222222
