46

C     -3.399267    1.429350    0.179479
C     -3.953041   -0.998005    0.451190
C      0.727600   -0.849468    1.644990
C      1.472480    2.512635   -1.380884
C      3.374068   -0.122686    0.467619
C      3.018088    1.239648    0.006579
C      0.183690   -1.981230   -0.440774
C     -1.233722   -1.688856   -0.118241
C     -0.709202    0.767244   -0.342234
C     -2.875845    0.043891    0.456477
C      0.718595    0.361618   -0.556581
C      2.503381   -1.217969   -0.087890
C      1.053139   -0.901270    0.192770
C      1.590552    1.518393   -0.217723
C     -1.702646   -0.319156   -0.437328
O      2.909456   -2.424725    0.432486
O      1.011501    2.176166    0.885524
O     -2.215611   -0.331733   -1.752988
H     -4.052359    1.379890   -0.704935
H     -3.947500    1.750370    1.098810
H     -2.525214    2.097836    0.050411
H     -3.759248   -1.861928   -0.180822
H     -4.879589   -0.505602    0.033536
H     -4.245938   -1.280843    1.495385
H      1.585076   -0.615059    2.298133
H     -0.078813   -0.147816    1.907006
H      0.381904   -1.874805    1.968662
H      1.312140    1.971054   -2.337149
H      0.687499    3.257644   -1.192579
H      2.427895    3.074004   -1.504020
H      4.423133   -0.356505    0.116580
H      3.439804   -0.165794    1.577131
H      3.624223    1.482935   -0.913752
H      3.401625    1.969637    0.777188
H      0.409074   -1.947565   -1.529796
H      0.443703   -2.972326   -0.010984
H     -1.412323   -1.929491    0.947990
H     -1.867426   -2.421720   -0.700405
H     -0.738671    1.313050    0.645062
H     -0.926376    1.573508   -1.102809
H     -2.447499    0.080194    1.501700
H      0.836994    0.132835   -1.639538
H      2.621411   -1.182120   -1.201908
H      3.400383   -2.909763   -0.302058
H      1.554785    2.085419    1.691892
H     -2.141907   -1.210886   -2.171204
