73

C     -6.315749   -3.299393   -1.313940
C     -2.504053    2.611408   -1.489464
C     -0.515250    3.844232   -1.128466
C      0.476548   -2.733729    0.799280
C     -3.200303    3.795483   -1.563925
C     -1.213733    5.020012   -1.203553
C      1.822380   -2.724869    0.564898
C     -3.473111    1.561209    2.080486
C     -2.017935    1.107427    2.018733
C     -0.392459    1.344692   -1.188911
C     -1.698659   -1.623360    0.968875
C     -5.700925    0.519559    1.639955
C     -4.624705   -1.353172   -0.052740
C      6.766187   -1.090046   -1.725526
C     -1.152510    2.647003   -1.269925
C     -4.320276    0.539677    1.411408
C     -0.263098   -1.578835    0.710070
C     -2.575731    5.016308   -1.423769
C     -3.801677   -0.411731    0.556453
C     -2.360112   -0.481915    0.244741
C     -0.373136    0.866241    0.268330
C     -6.498246   -0.424946    1.023759
C      7.878350   -1.291483   -0.708967
C      2.533059   -1.540094    0.219297
C     -5.975435   -1.373182    0.170592
C      0.369705   -0.417043    0.382161
C      7.272157   -2.045991    0.444338
C      1.757033   -0.405557    0.140182
C      5.972545   -1.447293    0.924008
C      5.023869   -1.200657   -0.275152
N     -1.736836    0.734827    0.669182
O     -3.311220    6.196258   -1.504691
O     -7.866772   -0.459371    1.238685
O      8.412277   -0.108656   -0.253923
O      6.965178   -3.360413    0.025097
O      2.343824    0.787708   -0.185402
O      6.160683   -0.266528    1.640950
O     -6.794482   -2.320589   -0.444101
O      5.661905   -1.840441   -1.383807
O      3.839015   -1.679533    0.019727
H     -5.946593   -2.877709   -2.285765
H     -7.156095   -3.988910   -1.551153
H     -5.527670   -3.943656   -0.856894
H     -3.037157    1.653185   -1.606418
H      0.570336    3.881612   -0.951820
H     -0.016186   -3.684475    1.063144
H     -4.282874    3.785088   -1.739195
H     -0.710554    5.991861   -1.091029
H      2.378424   -3.644323    0.641620
H     -3.793752    1.773522    3.106990
H     -3.522711    2.478453    1.423719
H     -1.908378    0.299184    2.758320
H     -1.339770    1.920955    2.331377
H     -0.942316    0.638911   -1.843515
H      0.618462    1.454159   -1.607404
H     -1.910805   -1.615704    2.057787
H     -2.184145   -2.560736    0.583276
H     -6.180515    1.228973    2.293946
H     -4.213372   -2.093413   -0.719310
H      6.481343   -0.003420   -1.788948
H      7.147918   -1.349639   -2.728833
H     -2.190102   -0.618625   -0.829875
H      0.165633    1.627735    0.848556
H      8.652634   -1.966464   -1.167481
H      7.935111   -2.128540    1.309008
H      5.519737   -2.174199    1.629031
H      5.182394   -0.118037   -0.506416
H     -2.853733    7.082915   -1.402269
H     -8.274606    0.213532    1.850554
H      9.402982   -0.144894   -0.438351
H      7.734906   -3.737640   -0.473700
H      3.265421    1.016622   -0.387578
H      6.367731    0.490460    1.036181
