43

C      3.906003    1.941893    0.238225
C      4.068825   -0.299935    1.108456
C     -1.736642   -0.188479    1.621712
C     -0.666394    1.411193   -2.303150
C      1.090240   -1.105993    1.170855
C     -3.150728   -0.428317   -0.839840
C     -0.167394   -1.961138    0.941008
C     -2.580465    0.929388   -0.828263
C      2.070287    0.511706   -0.400145
C      3.338190    0.716633    0.317083
C      0.872822    0.186690    0.434276
C     -2.232937   -1.531369   -0.407326
C     -0.302114   -0.104487   -0.461992
C     -1.160210   -0.957768    0.483971
C     -1.105587    1.062203   -0.873070
O     -2.928623   -2.523000    0.284034
O     -0.704651    2.160680   -0.088301
H      4.839073    2.099177    0.747744
H      3.443760    2.755691   -0.321227
H      5.126432    0.031743    1.306700
H      3.566700   -0.587881    2.039934
H      4.207852   -1.228713    0.500530
H     -1.355199    0.827373    1.700638
H     -1.402982   -0.698858    2.575151
H     -2.843185   -0.283839    1.655243
H     -0.235934    0.523261   -2.800277
H     -1.565383    1.694445   -2.902558
H      0.013740    2.270770   -2.273974
H      1.233492   -0.982114    2.257839
H      1.940706   -1.692907    0.761571
H     -3.502406   -0.686791   -1.864906
H     -4.064552   -0.499909   -0.195134
H      0.023045   -2.666679    0.111801
H     -0.439286   -2.472397    1.885128
H     -2.964340    1.484558    0.053458
H     -2.999070    1.514782   -1.703471
H      1.886954    1.373699   -1.089052
H      2.281366   -0.342325   -1.124819
H      0.635349    1.025122    1.132545
H     -1.724338   -1.974889   -1.291769
H     -0.034538   -0.740309   -1.320112
H     -3.182959   -3.282361   -0.319714
H     -1.494915    2.719454    0.081199
