43

C      3.990157   -0.914982   -1.254176
C      3.980409    0.486321    0.720608
C     -0.943169   -1.481382    1.513255
C     -1.227859    0.628566   -2.508332
C      1.094490    0.451575    1.494480
C     -3.269643   -0.274144   -0.146415
C     -0.317839    0.818278    1.996798
C     -2.443650   -0.984707   -1.144925
C      1.932324    0.330954   -0.873839
C      3.306580   -0.050337   -0.475246
C      0.926139   -0.117316    0.112937
C     -2.573159    0.352838    0.991048
C     -0.483397    0.277338   -0.226931
C     -1.155930   -0.085118    1.091719
C     -1.085951   -0.414620   -1.390097
O     -3.208664    0.081083    2.202187
O     -0.277599   -1.422696   -1.917949
H      4.983593   -1.197380   -1.008922
H      3.539461   -1.331141   -2.134912
H      5.093403    0.260071    0.639578
H      3.943666    1.597032    0.710161
H      3.695114    0.021400    1.674748
H     -1.884599   -1.844452    2.019816
H     -0.159908   -1.577889    2.321855
H     -0.672115   -2.199824    0.744151
H     -1.965109    0.270181   -3.241330
H     -0.277533    0.838326   -2.996172
H     -1.689086    1.544282   -2.036824
H      1.721264    1.352173    1.453850
H      1.433499   -0.308235    2.230634
H     -3.927588    0.510378   -0.624353
H     -4.014450   -1.016026    0.269172
H     -0.490878    1.889805    1.745277
H     -0.466622    0.572565    3.045673
H     -3.005572   -0.961900   -2.124830
H     -2.404624   -2.090003   -0.910756
H      1.919674    1.464040   -0.842946
H      1.728874   -0.021626   -1.908106
H      1.037302   -1.222191    0.218328
H     -2.565105    1.477709    0.889080
H     -0.509609    1.384995   -0.286373
H     -3.134975    0.826434    2.851866
H     -0.171316   -1.368291   -2.883790
