37

C      3.446629    0.750042    0.226338
C      2.686768   -1.408177   -0.750492
C     -0.553245   -1.436721    1.109874
C      1.727287   -0.566317    1.371979
C      1.143515    0.477249   -0.739635
C     -2.432941   -2.570810    0.217811
C     -2.284330    1.120316    0.919765
C     -3.339192   -0.114036   -0.972097
C      0.262266   -0.231690    1.398513
C     -1.700417   -1.349160    0.457888
C      0.131767    0.810615    0.325621
C     -1.372933    1.861479   -1.378943
C      2.271137   -0.163744    0.038101
C     -2.214018   -0.051472   -0.007409
C     -1.243479    1.019454   -0.168556
O     -3.518846   -2.517191   -0.395311
O     -4.432394    0.273538   -0.626803
O     -1.469879    1.249272   -2.487770
O     -1.394426    3.226496   -1.380363
H      3.460126    1.620924   -0.425092
H      3.470934    1.110493    1.294095
H      4.369002    0.164186    0.095078
H      1.867617   -2.134641   -0.673902
H      3.641913   -1.775219   -0.356600
H      2.871824   -1.084919   -1.804113
H     -0.155211   -2.388088    1.463165
H      2.217228    0.008594    2.188525
H      1.921698   -1.646522    1.548175
H      0.758787   -0.137027   -1.552551
H      1.565033    1.412068   -1.199504
H     -2.071489   -3.520340    0.550422
H     -3.052902    1.897035    0.778028
H     -2.010778    0.945087    1.964809
H     -3.218567   -0.492710   -1.971084
H     -0.057041    0.171684    2.376880
H      0.478959    1.780834    0.787022
H     -1.770402    3.689419   -2.221864
