44

C     -5.948102    1.591372    0.278113
C      5.702856   -0.493000    1.688080
C     -4.741720   -2.939467    0.219173
C      2.803503    1.430400   -2.040243
C     -1.791948    1.161003   -0.109633
C      4.133669    1.189821   -2.312888
C     -3.180213    1.313385    0.017388
C      0.816287    1.105253   -0.584061
C      0.994615   -0.365146    1.336821
C      2.246577    0.870956   -0.912142
C      0.270666   -0.160391    0.031004
C     -1.174102   -0.038266    0.167057
C      4.880705    0.393777   -1.451037
C     -3.952536    0.248913    0.426753
C     -2.002387   -1.069261    0.573553
C      2.987802    0.088636   -0.068337
C      4.317646   -0.161496   -0.326338
C     -3.367557   -0.958249    0.710046
O      6.218149    0.144546   -1.713949
O     -1.395411   -2.280009    0.855217
O     -5.339198    0.353197    0.567749
O      5.009092   -0.959205    0.564754
O     -4.165682   -2.023549    1.122991
O      2.375124   -0.447558    1.051436
H     -5.862679    1.831028   -0.800969
H     -5.416235    2.376522    0.867006
H     -7.032590    1.552554    0.538813
H      6.725387   -0.903959    1.665955
H      5.194038   -0.938735    2.587796
H      5.664628    0.597005    1.827143
H     -5.838587   -2.886221    0.335973
H     -4.351790   -3.969302    0.349292
H     -4.497037   -2.641391   -0.817756
H      2.210264    2.050805   -2.706778
H     -1.282948    2.059887   -0.433564
H      4.636890    1.601741   -3.188280
H     -3.674191    2.249983   -0.197424
H      0.260817    1.376296   -1.512051
H      0.706809    1.905821    0.195775
H      0.714487   -1.280011    1.866498
H      0.853037    0.563905    1.930253
H      0.566332   -0.991150   -0.673403
H      6.646772    0.544470   -2.535336
H     -1.921238   -3.094910    1.160373
