28

C     -3.237621    0.233200   -1.022551
C      2.781561    1.581026    0.064257
C     -2.342861   -0.130276    0.122745
C      1.551282   -1.849855   -0.126644
C      0.461584   -1.862762    0.883030
C      2.249057   -0.765707   -0.421948
C     -0.409389    1.229038   -0.730394
C     -0.880518   -0.115015   -0.252322
C     -0.070019   -0.451383    0.985855
C      1.657227    0.567824   -0.154085
O      0.895393    1.044661   -1.204619
O      0.964295    0.490760    1.044360
H     -2.741645    0.144804   -2.012909
H     -3.629986    1.241705   -0.871362
H     -4.134713   -0.448621   -1.080239
H      2.950388    2.176947   -0.880000
H      2.528684    2.279146    0.884030
H      3.744726    1.090639    0.276638
H     -2.582549   -1.181570    0.408749
H     -2.458833    0.532550    1.007940
H      1.799372   -2.768380   -0.657432
H      0.808310   -2.165974    1.874591
H     -0.359430   -2.491780    0.477307
H      3.236256   -0.832832   -0.852083
H     -1.063388    1.705583   -1.464946
H     -0.301745    1.912442    0.157984
H     -0.722735   -0.863841   -1.036486
H     -0.692703   -0.302329    1.883910
