19

C     -1.336017    0.319149    0.966097
C     -2.280613    0.084312   -0.173194
C      0.725602    0.900520   -0.338897
C      2.758297   -0.192687   -0.044910
C     -0.016045   -0.151842    0.407358
C     -1.719136   -1.157753   -0.785456
Cl     4.149760   -0.817269   -0.973750
O     -2.353961   -2.024813   -1.431356
O      1.856310    0.360406   -0.928707
O     -0.377503   -1.167373   -0.505619
H     -1.623298   -0.388801    1.785985
H     -1.321044    1.333449    1.353121
H     -2.295872    0.915457   -0.895692
H     -3.303971   -0.123453    0.213656
H      0.995360    1.769209    0.309296
H      0.106090    1.333369   -1.167834
H      2.360360   -1.061213    0.537578
H      3.097283    0.568111    0.669876
H      0.578397   -0.498776    1.265174
