85

C      5.052350    3.755390   -2.246728
C     -6.487410    0.185318    3.605209
C      2.232194    2.200562    3.489035
C      1.564137   -2.999685    3.980937
C      0.868977    0.330268   -4.604435
C     -6.786313    1.252535   -0.342051
C     -4.040445   -0.720471   -4.466815
C      4.504396   -4.427824   -0.622129
C      0.401828   -0.528367    0.419752
C      4.783989    0.712177    0.011278
C     -3.019333    1.143618    2.256103
C      5.377740    2.569323   -1.396771
C     -5.166098    0.824060    3.412224
C      2.835345    1.114284    2.675032
C      1.496156   -3.123328    2.491377
C      0.111298    0.947477   -3.489017
C     -5.329500    1.476454   -0.368233
C     -3.375945   -0.906582   -3.159965
C      1.453480   -1.103150   -0.417416
C     -0.211794    0.757948    0.000717
C      3.463522    0.111028    0.552711
C     -2.256083    0.605401    1.091092
C      2.707494   -0.327953   -0.645304
C      2.001416   -2.375897    0.242092
C     -0.897805    0.764898   -1.323347
C     -3.024436    0.845368   -0.171174
C     -2.272694    0.085181   -1.274617
C      3.360370   -2.452964   -0.398982
O      6.574800    2.225903   -1.228577
O     -4.820614    1.721566    4.218805
O      3.314791    0.124947    3.282234
O      0.862705   -4.105277    2.020219
O     -0.255677    2.145973   -3.558923
O     -4.926987    2.646735   -0.643799
O     -3.236585   -2.058584   -2.642211
O      3.464436   -3.649412   -1.120518
O      4.395939    1.820328   -0.776136
O     -4.290007    0.490884    2.397070
O      2.884943    1.156821    1.295640
O      2.086476   -2.225049    1.642977
O     -0.191245    0.193402   -2.365647
O     -4.373904    0.512198   -0.116466
O     -2.905371    0.239626   -2.514278
O     -1.051085    1.255536    0.993461
O      3.500260   -1.360225   -1.228313
H      5.670654    3.746294   -3.165750
H      3.988945    3.786533   -2.499896
H      5.373716    4.650462   -1.665244
H     -7.207168    0.981793    3.903135
H     -6.507714   -0.562571    4.409061
H     -6.884191   -0.284783    2.685149
H      1.356901    1.838349    4.063295
H      3.002945    2.644148    4.177992
H      1.822747    3.010761    2.819880
H      2.452090   -3.566742    4.363320
H      0.640499   -3.429280    4.400311
H      1.637035   -1.945986    4.305973
H      0.169778   -0.048029   -5.389033
H      1.411815   -0.559638   -4.228406
H      1.588076    1.071668   -4.983421
H     -7.088108    0.282208    0.046439
H     -7.165598    1.334785   -1.400286
H     -7.256558    2.119076    0.193132
H     -3.288146   -0.366298   -5.200215
H     -4.540379   -1.645346   -4.823070
H     -4.816799    0.080883   -4.309677
H      4.339004   -4.689829    0.462346
H      5.431866   -3.801584   -0.610631
H      4.726932   -5.296987   -1.247320
H      0.756902   -0.413136    1.462957
H     -0.410182   -1.325031    0.515348
H      5.439477    0.973273    0.852368
H      5.293796   -0.068545   -0.586037
H     -3.245172    2.224127    2.179450
H     -2.483809    0.955204    3.221124
H      1.109951   -1.452932   -1.421130
H      0.608570    1.525891   -0.084316
H      3.816599   -0.700774    1.226418
H     -2.084279   -0.475482    1.292896
H      2.597175    0.501865   -1.338512
H      1.422568   -3.269049   -0.041869
H     -1.141276    1.840308   -1.562296
H     -2.879211    1.932314   -0.431493
H     -2.209680   -0.957877   -0.927051
H      4.170516   -2.490485    0.378945
