39

C     -3.898176   -0.571923    1.116293
C     -4.392171   -1.004470   -1.381696
C     -0.057114    3.814677    0.295405
C      1.074960   -2.834161    1.199296
C      3.493610   -1.339208   -0.520016
C      4.778798   -0.903148   -0.788443
C     -1.146653   -0.176742    0.478783
C      1.866884    1.929508   -0.135532
C      2.532359   -0.356269   -0.303927
C      0.230710    0.182683    0.192287
C      0.589261    1.509329    0.131541
C      2.866031    0.980801   -0.359264
C     -2.096764   -0.000399   -0.673814
C      5.006926    0.450920   -0.821058
C      1.219270   -0.749525   -0.029008
C     -3.519022   -0.390139   -0.319491
O      6.183589    0.846430   -1.066872
O     -0.396908    2.446749    0.352211
O      0.957781   -2.101083    0.010507
O      4.091826    1.358692   -0.615612
O     -3.113987    0.918737   -0.625600
H     -3.474809   -1.460160    1.603140
H     -5.012835   -0.696608    1.143864
H     -3.693942    0.329484    1.738891
H     -3.870250   -1.040494   -2.348376
H     -4.830158   -1.974351   -1.071052
H     -5.271556   -0.311164   -1.517361
H      0.812437    4.061025    0.945422
H      0.184625    4.100760   -0.770723
H     -0.960301    4.388456    0.580247
H      1.623408   -2.266979    2.007730
H      0.082715   -3.079255    1.600685
H      1.616905   -3.793611    1.066262
H      3.257529   -2.401993   -0.481882
H      5.593320   -1.613536   -0.970168
H     -1.212845   -1.243106    0.782493
H     -1.515992    0.389542    1.385323
H      2.134012    2.973989   -0.179991
H     -1.733469   -0.373456   -1.650498
