45

C     -3.137600    0.388820    1.533800
C     -3.006156   -1.798050    0.457220
C      0.411761    1.490643   -3.353582
C      1.254775   -0.400010    3.047031
C     -4.385052    1.249494   -0.894634
C      4.064628   -0.895271    1.147588
C      5.376123   -0.717903    0.742215
C     -0.666074   -0.369730    0.326755
C      2.371227    0.587322   -1.675476
C      3.053047   -0.449352    0.320870
C      0.695755   -0.171002   -0.118056
C      1.028837    0.422743   -1.293680
C      3.395551    0.151669   -0.869558
C     -1.777917    0.044406   -0.556109
C      5.648832   -0.109080   -0.460366
C      1.740407   -0.616494    0.706319
C     -3.078800   -0.304056    0.212875
O     -1.821550   -0.840579   -1.656559
O      6.823204    0.057478   -0.838461
O      0.040930    0.877564   -2.138300
O      1.392891   -1.223622    1.908777
O     -4.189154   -0.087947   -0.592786
O      4.660274    0.300654   -1.217342
H     -2.786580   -0.291819    2.363267
H     -2.497907    1.315194    1.575885
H     -4.159673    0.701776    1.826628
H     -2.364178   -2.293612   -0.323378
H     -4.031753   -2.237609    0.389512
H     -2.600620   -1.972179    1.467289
H     -0.494123    1.769261   -3.947114
H      1.034201    2.402305   -3.207041
H      1.039292    0.794338   -3.966801
H      2.195821   -0.465365    3.650054
H      1.169572    0.656471    2.732898
H      0.394571   -0.702822    3.679733
H     -4.537101    1.854034    0.044949
H     -3.623165    1.684134   -1.538729
H     -5.361261    1.311137   -1.433245
H      3.840908   -1.373223    2.092193
H      6.169532   -1.069389    1.394185
H     -0.787274    0.191909    1.307095
H     -0.800421   -1.447229    0.670372
H      2.613517    1.066665   -2.623631
H     -1.795132    1.095332   -0.831286
H     -2.514164   -0.577004   -2.297508
