35

C     -6.429601    0.334166   -1.314568
C      6.599393    0.447412   -0.235352
C     -2.355130    0.615053   -0.542109
C     -2.482919   -1.079453    1.086250
C     -3.720742    0.504898   -0.785304
C     -3.850485   -1.192713    0.845600
C      4.219999   -0.791032    0.515300
C      3.004251   -1.353959    0.851943
C      3.003288    0.921801   -0.677666
C      0.406335    0.665972   -0.597209
C     -1.713844   -0.169962    0.392400
C      1.821649    0.320964   -0.314408
C     -4.485095   -0.404424   -0.090406
C      4.192868    0.352692   -0.254324
C      1.789939   -0.821078    0.452164
C     -0.275483    0.010371    0.584151
O     -5.823734   -0.492697   -0.348119
O      5.369857    1.000631   -0.649387
O      0.447230   -1.201943    0.662313
H     -7.533337    0.122868   -1.255595
H     -6.063186    0.095513   -2.346814
H     -6.192507    1.388247   -1.106557
H      7.436714    1.156022   -0.449472
H      6.792733   -0.449484   -0.843778
H      6.609703    0.233972    0.867317
H     -1.769298    1.340307   -1.102468
H     -1.968579   -1.691018    1.818070
H     -4.148972    1.169333   -1.546814
H     -4.408863   -1.930318    1.425118
H      5.162104   -1.204467    0.825474
H      3.006620   -2.251433    1.454822
H      3.029187    1.833713   -1.289679
H      0.098852    0.156254   -1.532252
H      0.234580    1.758307   -0.637308
H     -0.003526    0.605486    1.481249
