49

C     -2.924966   -4.465919   -1.961560
C     -6.022551    1.931445    2.553217
C      6.606807    1.984441   -1.560001
C      4.102962   -0.188802    2.893459
C      2.365134    1.257350   -1.569220
C     -4.406559    0.426605    0.944474
C     -3.637015   -0.373997    0.102395
C      3.740660    1.506777   -1.601251
C      2.554522    0.428964    0.631312
C     -2.462559    1.551329    1.661843
C     -2.445004   -3.074344   -1.980311
C      1.760400    0.717684   -0.456139
C     -3.832927    1.395497    1.731916
C     -2.279594   -0.203106    0.047914
C      4.519942    1.214553   -0.511393
C     -1.677066    0.763878    0.829181
C      3.932336    0.677742    0.601906
C     -0.014770   -1.012834   -0.559072
C      0.318623    0.473670   -0.466763
C     -1.506423   -1.083703   -0.867066
O     -2.467383   -2.446601   -3.069382
O      0.677865   -1.498706   -1.668396
O     -4.631086    2.165891    2.551063
O      5.888366    1.435667   -0.474107
O      4.694715    0.370648    1.722287
O     -1.966910   -2.415655   -0.854144
O     -0.289078    0.919094    0.755801
H     -2.809699   -4.936535   -2.961151
H     -2.341739   -5.048141   -1.213681
H     -4.014013   -4.478259   -1.681573
H     -6.443807    2.002083    1.507817
H     -6.574949    2.593186    3.232119
H     -6.224019    0.873148    2.854900
H      6.543276    3.110105   -1.518119
H      7.678514    1.713854   -1.471185
H      6.256253    1.658294   -2.539160
H      3.776989   -1.213253    2.627648
H      3.217366    0.415526    3.213253
H      4.834770   -0.273649    3.713336
H      1.765532    1.492823   -2.435068
H     -5.494926    0.276202    0.976061
H     -4.179731   -1.108771   -0.478198
H      4.192856    1.931315   -2.487296
H      2.085081   -0.001030    1.523709
H     -1.993318    2.302641    2.268730
H      0.241146   -1.531385    0.369222
H     -0.204685    0.959253   -1.314449
H     -1.609538   -0.711115   -1.919884
H      0.700197   -2.483862   -1.694995
