79

C     -4.063801    1.345761   -3.895503
C     -5.906084   -0.160131   -2.981902
C      0.390995    2.969581    3.513139
C      2.735830    2.261374    4.225108
C      1.103898   -2.950151    3.668914
C     -1.077826   -2.649281    4.927364
C     -2.475263   -1.828434   -0.555495
C     -2.299301   -0.043450    1.173525
C      5.651546    1.162086   -3.770829
C      4.419409    1.758391   -3.662248
C      5.775576   -0.163798   -3.430073
C      3.330158    1.004205   -3.210258
C      4.705099   -0.913567   -2.983315
C     -3.920790    0.482195   -1.621434
C     -2.665471    1.170874   -1.431284
C      2.054844    2.108761    1.911283
C     -0.954312   -2.405927    2.516154
C      1.052556    2.282371    0.858201
C     -0.256902   -2.401822    1.243681
C     -0.319017    1.307007   -0.971988
C     -4.612469    0.538353   -2.767484
C      1.727929    2.435302    3.151478
C     -0.342176   -2.655092    3.640763
C      3.438864   -0.325066   -2.864725
C     -1.439955    0.341152   -1.126288
C      1.648342   -0.785856   -1.331302
C      2.359019   -1.149716   -2.378517
C      1.938088    0.470219   -0.616067
C      0.534798   -1.575109   -0.827559
C      0.376163   -0.039402    1.011635
C     -1.633277   -0.674948   -0.032220
C      0.716778    1.053589    0.070391
C     -0.285818   -1.195348    0.386682
O      2.026444   -2.370022   -3.003576
O      3.061646    0.958735   -0.598968
O      0.219905   -2.630053   -1.413972
O      0.635789    0.052694    2.164473
H     -3.072636    0.968613   -4.212487
H     -4.760262    1.361872   -4.755800
H     -3.960351    2.388788   -3.505954
H     -5.881958   -0.868783   -3.834545
H     -6.184936   -0.679095   -2.036646
H     -6.669942    0.651667   -3.128114
H     -0.425755    2.234561    3.422260
H      0.390783    3.323363    4.578016
H      0.130717    3.874494    2.923057
H      3.332126    3.197991    4.344647
H      3.431378    1.465640    3.935503
H      2.241864    2.074992    5.221786
H      1.726703   -2.153011    3.268877
H      1.439056   -3.303802    4.673571
H      1.238671   -3.840243    2.981558
H     -0.461236   -2.244248    5.767445
H     -1.242936   -3.733481    5.197984
H     -2.074415   -2.208753    4.867421
H     -1.928159   -2.793185   -0.586735
H     -3.337988   -2.013143    0.120315
H     -2.775761   -1.680972   -1.626161
H     -1.638688    0.043031    2.052596
H     -2.601411    1.011470    0.965467
H     -3.252332   -0.580914    1.366230
H      6.481904    1.751201   -4.119450
H      4.259741    2.812261   -3.920279
H      6.742826   -0.631604   -3.515674
H      2.354288    1.462054   -3.134767
H      4.809752   -1.951582   -2.718616
H     -4.410911   -0.133167   -0.842500
H     -2.730426    2.066868   -0.750523
H     -2.401439    1.665907   -2.420683
H      3.060288    1.717945    1.696820
H     -2.016778   -2.212806    2.556362
H      0.093328    2.664065    1.273556
H      1.389378    3.101417    0.155227
H     -0.470692   -3.331758    0.668173
H      0.853197   -2.537409    1.477803
H     -0.696626    2.356632   -0.778915
H      0.202550    1.412115   -1.956552
H     -1.283345   -0.277368   -2.063045
H      2.449219   -3.217098   -2.595015
