46

C     -2.922505   -2.750896   -0.590045
C      6.030621   -1.399287   -1.520742
C      1.938702    3.944267    0.990522
C      1.271617   -2.090513   -1.925023
C     -2.633967    2.452867    1.079519
C      2.642579   -2.158318   -2.008801
C     -1.509322    3.189712    1.154071
C     -0.810175   -1.260443   -1.246135
C     -3.821744   -0.618303   -0.395340
C      0.662108   -1.108157   -1.174516
C     -2.611898    1.123552    0.731356
C     -1.479335   -0.964597    0.074114
C     -3.952185    0.453770    0.694304
C      3.466030   -1.241831   -1.341743
C     -0.271720    2.601247    0.871965
C     -1.427899    0.483717    0.441689
C      2.830135   -0.262546   -0.592844
C      1.470543   -0.223135   -0.531213
C     -0.279742    1.235239    0.517484
N     -2.791985   -1.499866    0.079579
O     -4.234038   -0.187517    1.886133
O      3.605345    0.679620    0.095788
O      4.743268   -1.309531   -1.422860
O      0.841399    3.259341    0.926909
O      1.057170    0.844064    0.276246
H     -3.906836   -3.193762   -0.253600
H     -2.162986   -3.488335   -0.239233
H     -3.004170   -2.681839   -1.686671
H      6.491143   -0.853274   -2.409647
H      6.480033   -2.444974   -1.643422
H      6.619829   -1.017645   -0.615240
H      2.643792    3.568102    1.804323
H      2.591520    3.933340    0.059643
H      1.857925    5.044523    1.233469
H      0.704015   -2.836314   -2.469837
H     -3.579312    2.971353    1.313036
H      3.126951   -2.928270   -2.597812
H     -1.474964    4.246800    1.425483
H     -1.255284   -0.687723   -2.086449
H     -1.013819   -2.329969   -1.457796
H     -4.770373   -1.156696   -0.424847
H     -3.543817   -0.119891   -1.337618
H     -0.883127   -1.513666    0.852588
H     -4.755187    1.151108    0.451366
H     -5.212180   -0.261056    2.030364
H      3.233845    1.405730    0.654952
