52

C     -1.018657    3.980796   -2.953998
C     -5.802228   -3.943819   -0.700553
C      6.653201    0.281219   -0.658984
C      3.168929   -1.049865    3.368119
C     -1.425461    1.436516    2.866346
C      2.557529    0.257825   -1.504077
C     -4.442506   -1.475364    0.055743
C     -3.748281   -0.334256    0.398619
C      3.931532    0.270306   -1.237390
C      2.095987   -0.385437    0.719866
C     -2.388833   -2.541457   -0.548202
C     -0.525332    3.178595   -1.810090
C      1.643335   -0.066874   -0.536073
C     -3.774477   -2.582588   -0.417691
C     -2.379499   -0.291615    0.270508
C      4.378500   -0.051062    0.027483
C     -1.687293   -1.391295   -0.203030
C      3.463654   -0.379294    1.008080
C      0.207103   -0.065061   -0.871266
C     -1.542908    0.883598    0.618325
C     -0.506017    1.154807   -0.407471
O      0.371807    3.659585   -1.051694
O     -4.427019   -3.731634   -0.767685
O      5.735136   -0.053683    0.344977
O      3.930657   -0.694399    2.254771
O     -0.974817    0.603661    1.869926
O     -0.981492    1.914881   -1.501200
O     -0.321310   -1.244376   -0.293032
H     -2.069979    3.741484   -3.217544
H     -0.416599    3.832174   -3.873593
H     -0.986459    5.065049   -2.721583
H     -6.035545   -5.019179   -0.458385
H     -6.333172   -3.346165    0.051203
H     -6.215064   -3.771878   -1.736743
H      6.647802   -0.465325   -1.494773
H      6.379132    1.260101   -1.128674
H      7.671966    0.407788   -0.261043
H      2.886068   -0.142495    3.968916
H      3.758364   -1.705967    4.073140
H      2.247929   -1.593557    3.158263
H     -1.157514    2.482241    2.578184
H     -2.531081    1.321187    2.989453
H     -0.973174    1.119482    3.811947
H      2.292277    0.521997   -2.520632
H     -5.538209   -1.471323    0.172134
H     -4.248937    0.558185    0.776292
H      4.640452    0.528693   -2.011928
H      1.444601   -0.652837    1.538794
H     -1.833062   -3.398851   -0.916351
H      0.136061   -0.157633   -2.003979
H     -2.229545    1.740720    0.795012
H      0.272449    1.806399    0.091565
