53

C      1.912864    6.363297   -1.055116
C     -6.046956   -1.974681   -2.034407
C     -4.037633   -1.050731    3.044196
C      4.990156   -3.411717   -2.071612
C     -1.934253   -1.055214   -1.459326
C      2.194941    4.010551    0.408966
C      2.331298    2.842072    1.130146
C     -3.255634   -1.356633   -1.705165
C     -2.288305   -0.898937    0.869962
C      0.839333    2.860012   -1.246196
C      2.980031   -2.327392    1.009851
C     -1.444917   -0.827677   -0.196500
C      1.454154    4.013042   -0.768130
C      1.718054    1.722596    0.640122
C     -4.107591   -1.428528   -0.625974
C      0.977296    1.704930   -0.528331
C     -3.629316   -1.202565    0.643921
C      3.784853   -3.139757    0.041843
C      0.353448   -0.101485    1.374833
C     -0.021614   -0.505932   -0.002865
C      1.796594    0.412586    1.334108
O      4.094637   -4.337202    0.290880
O      0.233377   -1.128192    2.308845
O      1.302330    5.162447   -1.505610
O     -5.458413   -1.727681   -0.785990
O     -4.512105   -1.279990    1.732784
O      4.231159   -2.629266   -1.170142
O      0.395353    0.482706   -0.924823
S      2.760348   -0.700922    0.286821
H      1.504988    6.703069   -0.097130
H      3.020686    6.214555   -0.917070
H      1.778580    7.116437   -1.847307
H     -6.039573   -1.013967   -2.595226
H     -5.426679   -2.742029   -2.559657
H     -7.078449   -2.351767   -1.858830
H     -3.581038   -0.039494    3.130163
H     -3.332896   -1.835953    3.349276
H     -4.934882   -1.037161    3.702788
H      6.078259   -3.186450   -1.997689
H      4.678105   -3.153821   -3.124872
H      4.779584   -4.495549   -1.892983
H     -1.289904   -1.008222   -2.350074
H      2.666857    4.905854    0.771395
H      2.906237    2.821691    2.051651
H     -3.646732   -1.536806   -2.697361
H     -2.003694   -0.735043    1.899939
H      0.257036    2.858268   -2.169817
H      3.517619   -2.244085    1.985162
H      1.993292   -2.795105    1.139463
H     -0.305395    0.738182    1.691702
H      0.536596   -1.472808   -0.211234
H      2.214300    0.501206    2.353668
H      0.093612   -0.700736    3.206951
