47

C     -5.523578    3.023764    0.391704
C      3.738980   -0.727234    4.083827
C      5.380276    0.876029   -1.022515
C     -0.382357   -3.401272   -0.614742
C      0.898090    0.095312    1.128667
C     -4.491655   -0.428922   -0.594287
C     -3.404431   -1.170684   -0.942987
C      1.836560   -0.172077    2.087008
C      2.671640    0.613781   -0.405718
C     -3.163467    1.540801   -0.332632
C      1.304280    0.490146   -0.125632
C     -4.387671    0.930650   -0.285606
C     -2.161318   -0.567285   -0.994729
C      3.198653   -0.049753    1.810136
C     -2.068981    0.769741   -0.689524
C      3.618037    0.344908    0.558778
C     -0.014079   -0.373941   -2.080764
C      0.336363    0.775760   -1.179418
C     -0.937752   -1.287449   -1.362608
O     -0.519637    0.109777   -3.280018
O     -5.504249    1.666774    0.065714
O      4.122273   -0.326465    2.797103
O      4.985052    0.469012    0.278011
O     -0.363835   -2.054452   -0.387011
O     -0.833984    1.432829   -0.725319
H     -6.525711    3.486590    0.248795
H     -4.811977    3.572679   -0.257498
H     -5.248232    3.225105    1.454815
H      3.262336    0.120818    4.634554
H      3.082462   -1.618975    4.024361
H      4.639141   -0.990054    4.684619
H      4.834417    1.814686   -1.254562
H      5.127928    0.122418   -1.776529
H      6.448581    1.147635   -0.983186
H      0.084794   -4.000576    0.186371
H     -1.455015   -3.722153   -0.710085
H      0.097908   -3.691493   -1.584778
H     -0.157379    0.010616    1.339430
H     -5.467900   -0.853557   -0.541575
H     -3.446714   -2.220005   -1.186868
H      1.526975   -0.486008    3.082858
H      3.005159    0.924859   -1.389417
H     -3.065874    2.578827   -0.097828
H      0.959965   -0.924458   -2.250123
H      0.832989    1.533098   -1.882462
H     -1.288000   -2.044302   -2.147425
H     -0.769062   -0.565501   -3.928246
