19

C      3.022926    0.416457   -0.027154
C     -1.360773   -0.215745    1.560760
C     -2.069866    0.534317   -1.651348
C      1.591944    0.829859    0.038801
C     -0.806916    0.269693    0.242284
C      0.638706   -0.084300    0.170943
Br     1.153127   -1.920490    0.272369
O     -1.450177   -0.397557   -0.796154
H      3.628498    1.246110   -0.436816
H      3.409847    0.161224    0.994823
H      3.082357   -0.486950   -0.673727
H     -1.898530    0.566360    2.117123
H     -2.020344   -1.095099    1.394572
H     -0.545640   -0.574558    2.227691
H     -2.817177    1.118060   -1.050432
H     -2.647496   -0.018973   -2.410940
H     -1.306067    1.197316   -2.109097
H      1.324423    1.898749   -0.022319
H     -0.928842    1.374436    0.158620
