88

C      9.788215    0.448335    1.975110
C     -5.447301    2.129467    1.010540
C     -6.832624   -3.628966   -0.687866
C      4.127777   -1.955364   -1.697554
C     -2.426942    0.524842    1.888203
C     -1.899709    0.209405   -1.874803
C     -7.004221    0.226224   -0.524590
C     -7.392237    0.154295    1.800913
C      8.526772    0.380138    1.163359
C      8.458161    0.915673   -0.036209
C      3.589853    2.089449   -0.370649
C      1.712581   -1.148961   -0.218369
C      0.367159   -1.020990   -0.899569
C      4.483959    1.706435   -1.559160
C     -0.951697    2.226743   -0.055264
C     -2.428439    2.072720    0.006718
C      1.292722    1.727609   -0.108200
C     -2.542612   -1.586875   -0.322463
C      4.418410   -1.144501    0.568703
C     -5.189062    0.634530    1.031735
C     -5.780686   -2.883125    0.050049
C      2.424276    1.176646   -0.463339
C     -0.084057    1.253821   -0.031020
C      2.658468   -0.200672   -0.934299
C     -0.491367   -0.193800    0.063888
C     -3.943433   -1.288510    0.166596
C      5.017791    0.320801   -1.382697
C      7.288268    0.897842   -0.887020
C     -4.129744    0.210435    0.073173
C      4.065134   -0.678796   -0.832920
C     -2.751306    0.689175    0.437319
C     -1.900654   -0.247714   -0.434451
N      6.205677    0.343646   -0.530179
N     -6.429857   -0.045433    0.750559
O      5.691077   -1.715329    0.596135
O     -5.670309   -3.092061    1.280355
O      7.345187    1.502373   -2.129771
O     -4.923035   -1.975816   -0.549805
H      9.656876    1.079712    2.874961
H     10.075316   -0.601765    2.224190
H     10.614152    0.833375    1.335205
H     -4.919700    2.614926    1.851742
H     -6.532722    2.320377    1.182866
H     -5.091423    2.599706    0.073866
H     -6.589092   -3.730386   -1.764954
H     -7.847230   -3.177168   -0.528821
H     -6.879877   -4.644920   -0.241436
H      5.148895   -2.128189   -2.058488
H      3.440948   -1.804107   -2.568487
H      3.799291   -2.834723   -1.146619
H     -1.376271    0.815643    2.091361
H     -2.586622   -0.469446    2.302248
H     -3.052397    1.243898    2.454935
H     -1.001125    0.845665   -2.095421
H     -2.811264    0.711223   -2.191678
H     -1.787974   -0.701059   -2.499019
H     -7.648206    1.153345   -0.503763
H     -6.336429    0.217152   -1.379469
H     -7.754842   -0.597292   -0.716792
H     -7.632146   -0.863826    2.212369
H     -6.994829    0.746992    2.650719
H     -8.297166    0.661061    1.405556
H      7.668859   -0.113347    1.574561
H      9.386838    1.404434   -0.376216
H      4.185010    1.914187    0.537305
H      3.299796    3.150556   -0.506114
H      2.079470   -2.197543   -0.255241
H      1.697312   -0.857057    0.846120
H     -0.075018   -2.036466   -0.935572
H      0.458665   -0.561078   -1.883429
H      3.882465    1.830810   -2.480078
H      5.283332    2.453104   -1.587798
H     -0.570370    3.258649   -0.127736
H     -2.890947    2.344067   -0.964433
H     -2.802054    2.832912    0.752878
H      1.444894    2.778187    0.193188
H     -2.010639   -2.314684    0.289298
H     -2.663225   -2.051624   -1.338992
H      4.428429   -0.326887    1.313982
H      3.722075   -1.930128    0.920597
H     -4.941228    0.395443    2.092136
H      2.399684   -0.196347   -2.025994
H     -0.322897   -0.616016    1.054766
H     -3.945204   -1.554886    1.251810
H      5.344711   -0.023125   -2.408834
H     -4.404428    0.558869   -0.930481
H      5.672346   -2.690504    0.447949
H      6.833764    1.224587   -2.939496
