19

C      2.780825    0.615691   -1.010827
C     -0.687072   -1.285484    1.512115
C     -2.489604    0.666455   -0.710903
C      1.420244   -0.011300   -0.929403
C     -0.701524   -0.408879    0.295687
C      0.670049    0.187919    0.146875
Br     1.333937    1.274254    1.584275
O     -1.597904    0.611982    0.326488
H      3.021878    1.185502   -0.115524
H      3.497376   -0.202753   -1.240471
H      2.757322    1.259054   -1.926158
H     -1.685282   -1.563396    1.881053
H     -0.144397   -0.767776    2.341862
H     -0.104028   -2.203506    1.290869
H     -1.935764    0.775048   -1.689303
H     -3.230981   -0.134126   -0.742712
H     -3.041864    1.647926   -0.614200
H      1.019400   -0.623126   -1.713798
H     -0.882611   -1.023486   -0.610295
