46

C     -2.008464   -3.238029   -1.288924
C      6.386147   -0.825127    0.183601
C     -0.418409    4.900270    0.229322
C      2.330219   -1.988671    0.574532
C     -3.146720    1.831313    0.578467
C      3.670033   -1.592272    0.441205
C     -2.227605    2.842910    0.458159
C      0.017908   -1.758960    0.483912
C     -3.468574   -1.561121   -0.593158
C      1.317342   -1.109732    0.265963
C     -2.766831    0.523471    0.324119
C     -1.097803   -1.237571   -0.342524
C     -3.772522   -0.552841    0.477725
C      3.995576   -0.334956    0.005574
C     -0.936600    2.560921    0.087682
C     -1.484912    0.181613   -0.052063
C      2.990796    0.551174   -0.305409
C      1.688087    0.142497   -0.167656
C     -0.587642    1.234378   -0.160658
N     -2.179090   -2.148060   -0.323304
O     -5.040962    0.001847    0.346840
O      3.312136    1.845075   -0.753763
O      5.338432    0.059633   -0.127156
O      0.012601    3.582115   -0.039303
O      0.777550    1.159057   -0.523289
H     -1.406012   -2.815807   -2.123078
H     -2.977760   -3.548989   -1.723739
H     -1.508628   -4.104160   -0.841618
H      6.457470   -1.572060   -0.630971
H      6.209068   -1.346688    1.152575
H      7.333221   -0.263617    0.316692
H     -0.876014    4.964854    1.259561
H      0.431842    5.597552    0.202700
H     -1.241774    5.219066   -0.455819
H      2.172845   -2.981828    0.918985
H     -4.173277    2.076573    0.875862
H      4.466104   -2.298316    0.688940
H     -2.500647    3.890940    0.653423
H     -0.232554   -1.720825    1.570247
H      0.136786   -2.834338    0.237321
H     -4.206525   -2.389412   -0.607727
H     -3.428833   -1.025138   -1.555223
H     -0.711544   -1.236001   -1.410748
H     -3.636711   -0.992434    1.507646
H     -5.561211   -0.166820    1.161251
H      2.553463    2.478511   -0.976177
