47

C     -5.108696   -2.884776   -2.185817
C      6.069737   -2.265851    0.880262
C      3.882071   -0.246934   -3.277526
C     -3.080825    2.982673    2.683931
C      2.013467    0.163784    1.427478
C     -4.131071   -0.872757   -0.388263
C     -3.689704    0.092176    0.493826
C      3.167869   -0.560113    1.492336
C      2.307168    0.350891   -0.919421
C     -2.165529   -0.650635   -1.674323
C      1.569113    0.626527    0.224528
C     -3.387028   -1.270807   -1.491476
C     -2.475774    0.703509    0.304850
C      3.965186   -0.875449    0.368651
C     -1.711427    0.332073   -0.782206
C      3.465364   -0.375558   -0.850787
C     -0.460625    1.360315    1.429906
C      0.308406    1.403715    0.128544
C     -1.917495    1.754675    1.206589
O      0.046215    2.243672    2.379942
O     -3.865079   -2.245304   -2.353608
O      5.063480   -1.568497    0.448220
O      4.230698   -0.674051   -1.966326
O     -2.585276    1.702361    2.405927
O     -0.486586    0.961836   -0.959636
H     -5.894355   -2.103198   -1.910453
H     -5.429240   -3.402331   -3.144026
H     -5.138795   -3.644151   -1.373593
H      6.091099   -3.379354    0.651536
H      6.230427   -2.224876    2.016393
H      7.115144   -1.957329    0.522292
H      3.876915    0.863900   -3.344319
H      4.581020   -0.708439   -4.028977
H      2.850120   -0.590375   -3.530466
H     -2.205535    3.668273    2.731205
H     -3.564352    3.025574    3.679866
H     -3.840081    3.312818    1.942962
H      1.470528    0.354798    2.371770
H     -5.099333   -1.340136   -0.212498
H     -4.276456    0.406478    1.360562
H      3.528622   -0.936908    2.443791
H      1.943098    0.728655   -1.887735
H     -1.555022   -0.939367   -2.532478
H     -0.445160    0.312834    1.789580
H      0.584391    2.457571   -0.074081
H     -1.940401    2.762262    0.760173
H      0.093707    3.145824    1.992319
