94

C     10.237278    2.940092   -2.155809
C      8.018836   -3.268429    0.938198
C     -2.149540    2.683169   -1.695126
C      0.530904   -3.186555    1.590773
C      8.065812    1.360609   -0.879604
C      7.425623   -0.665350    0.104660
C      0.033904    1.275412   -0.770440
C      0.991380   -0.602009    0.288876
C     -4.797085   -3.460841    3.227220
C      4.112591    1.783964   -1.931739
C      4.149876    0.096641    1.077284
C     -8.333723    1.750483   -2.913094
C     -6.229393    0.371891   -2.978188
C      7.078817    0.602467   -0.284206
C      1.162681    0.624023   -0.333031
C      4.750925    0.690473   -1.115321
C      3.612004    0.142097   -0.321374
C      9.347860    0.909898   -1.093662
C      8.689273   -1.177214   -0.079982
C     -1.233843    0.731835   -0.599023
C     -0.264240   -1.140835    0.458839
C     -4.219803   -2.035825    3.219275
C      9.646781   -0.391850   -0.677176
C     -5.326991   -1.060209    3.408474
C     -5.165894    0.196346    2.594497
C      5.720489    1.196534   -0.103934
C      2.521064    1.178546   -0.495123
C     -1.419953   -0.479652    0.014299
C     -4.784629   -0.313041    1.191611
C     -7.055303    1.048105   -0.905341
C     -3.370993   -0.797865    1.387330
C     -5.817666    0.186137   -0.777117
C     -7.532341    0.608045   -2.297282
O     -5.399457   -3.772929    2.028413
O     -9.407156    2.051417   -2.074257
O     10.933563   -0.919599   -0.862919
O     -5.578164   -0.774929    4.753817
O     -6.301350    0.967601    2.556751
O     -8.042982    0.735365   -0.005947
O     -8.321487   -0.506326   -2.151708
O     10.354498    1.634136   -1.682155
O      9.022480   -2.463071    0.319632
O     -2.330041    1.447480   -1.067866
O     -0.471922   -2.363377    1.075617
O      5.217807    0.955270    1.142320
O      2.747177    1.746219   -1.745155
O     -5.259233    0.172987   -2.029650
O     -3.295558   -1.847553    2.274297
O     -2.665004   -1.042946    0.199522
O     -4.959679    0.613727    0.215388
H      9.684814    3.573597   -1.417728
H     11.271634    3.363555   -2.259546
H      9.691966    2.988812   -3.121428
H      8.410693   -4.306138    1.081572
H      7.768408   -2.872564    1.948753
H      7.105160   -3.271055    0.316169
H     -1.467839    2.594833   -2.581484
H     -1.634120    3.377590   -0.989649
H     -3.116565    3.140818   -1.963508
H      0.922382   -3.856653    0.792293
H      1.346167   -2.584553    2.056545
H      0.110667   -3.803788    2.436766
H      7.866712    2.386360   -1.218986
H      6.696425   -1.289766    0.569345
H      0.177277    2.237943   -1.257870
H      1.840745   -1.177351    0.664620
H     -5.519571   -3.576647    4.061097
H     -3.999604   -4.211665    3.403645
H      4.425512    1.808702   -2.977533
H      4.473348    2.753189   -1.480577
H      3.354312    0.431125    1.809889
H      4.473667   -0.940178    1.326296
H     -8.695065    1.445035   -3.909733
H     -7.724223    2.675354   -2.976024
H     -6.290142   -0.418072   -3.746969
H     -5.959591    1.315330   -3.529170
H      5.197544   -0.030745   -1.831473
H      3.284399   -0.854829   -0.705867
H     -3.650100   -2.012720    4.213723
H     -6.299047   -1.516763    3.039859
H     -4.293518    0.752650    3.017264
H      5.842302    2.308119   -0.264565
H      2.683413    1.965269    0.263980
H     -5.391124   -1.207224    0.936122
H     -6.821175    2.115271   -0.995670
H     -2.825219    0.046332    1.912866
H     -6.154945   -0.837330   -0.512429
H     -4.731942   -4.126517    1.409565
H     -9.920008    1.244013   -1.821591
H     11.649745   -0.365244   -1.296227
H     -5.931831    0.162667    4.822159
H     -6.050041    1.899722    2.291398
H     -8.479303    1.522358    0.402451
H     -7.960514   -1.279402   -2.654759
