52

C      2.219368    2.357448    1.184355
C      4.316620    0.961759    0.984776
C     -1.152413    2.738799    1.154645
C     -3.466814   -1.311876    2.124396
C      0.770265   -1.643857   -2.229885
C     -2.695374    0.014617   -1.025696
C     -2.336095    0.963386    0.061459
C     -3.209887   -1.305596   -0.416016
C     -0.582027    2.016959   -1.249529
C      0.520649    1.032582   -1.474644
C     -1.400569   -1.899768    0.931194
C      2.867592   -1.075495   -0.429095
C     -0.576442   -2.116011   -0.165655
C      1.774105   -2.034847   -0.169560
C      2.837309    1.099778    0.687439
C     -1.386825    1.852608   -0.044860
C     -2.656593   -1.519263    0.894118
C      2.173897    0.184443    0.049369
C      0.755248    0.047973   -0.369697
C      0.506939   -1.378764   -0.736675
H      2.976440    3.121820    1.472285
H      1.524786    2.137896    2.026209
H      1.662612    2.810597    0.344140
H      4.905283    0.889124    0.060951
H      4.685412    1.760426    1.649285
H      4.445263    0.013392    1.586198
H     -2.182833    3.155123    1.372854
H     -0.512732    3.600879    0.927294
H     -0.863083    2.177298    2.040139
H     -2.865432   -0.897122    2.955062
H     -3.784917   -2.338627    2.472884
H     -4.389629   -0.759434    1.943836
H      0.966996   -2.727976   -2.391403
H     -0.150487   -1.407962   -2.788943
H      1.592473   -1.017343   -2.583240
H     -3.523027    0.540255   -1.590719
H     -1.909691   -0.141896   -1.769188
H     -2.923369    0.876779    0.980706
H     -4.317224   -1.073133   -0.262088
H     -3.259654   -2.113734   -1.134092
H     -0.157411    3.071870   -1.260574
H     -1.256267    2.045868   -2.164070
H      1.464356    1.618597   -1.715624
H      0.340754    0.523415   -2.462335
H     -0.966193   -2.061209    1.944863
H      3.715317   -1.336067    0.248439
H      3.238575   -1.003710   -1.445170
H     -0.201854   -3.193921   -0.040874
H     -1.275320   -2.316732   -1.059926
H      1.924136   -3.043607   -0.589326
H      1.662451   -2.153593    0.933242
H      0.155317    0.257856    0.538742
