53

C      2.218526    1.821594    1.225888
C      3.302190    1.838832   -0.856010
C     -2.258917    1.163095   -1.667072
C     -3.440368    1.786844    0.269097
C      1.222489   -3.222817    1.438525
C      2.522879    1.159834    0.056276
C     -2.599995    0.907194   -0.359889
C      2.682842    3.119175    1.465925
C      3.774305    3.114677   -0.650139
C     -2.742270    2.272826   -2.341525
C     -3.945913    2.903967   -0.361564
C      0.812398   -4.599138    0.968556
C      0.800586   -2.210420    0.431624
C      3.460181    3.772274    0.534728
C     -3.578348    3.119416   -1.666730
C     -0.612091   -4.691840    0.549124
C     -1.051307   -3.555485   -0.353898
C     -0.721249   -2.277473    0.324429
C      2.051195   -0.195223   -0.219991
C     -2.108359   -0.245370    0.366987
O      2.338831    3.724487    2.662760
O      4.563666    3.776128   -1.597274
O     -2.346079    2.451216   -3.655938
O     -4.796767    3.790509    0.282274
O      1.701695   -5.072321    0.003176
O      3.950856    5.052570    0.708589
O     -4.079039    4.232699   -2.303158
O     -1.494259   -4.856332    1.616422
O     -0.274343   -3.689504   -1.527867
O      2.371970   -0.730804   -1.310555
O     -2.443960   -0.429633    1.537324
O      1.277292   -0.926607    0.635689
O     -1.270678   -1.130803   -0.245276
H      1.604411    1.294258    1.951564
H      3.567942    1.344681   -1.803851
H     -1.597515    0.484370   -2.185451
H     -3.743572    1.632175    1.306170
H      0.645677   -3.030990    2.379393
H      2.313996   -3.252368    1.614019
H      0.944468   -5.277537    1.855313
H      1.171046   -2.547617   -0.581015
H     -0.713399   -5.628144   -0.074410
H     -2.124188   -3.713592   -0.562994
H     -1.091597   -2.342049    1.377902
H      2.649080    4.646052    2.871009
H      4.783532    3.286016   -2.452810
H     -2.652472    3.232728   -4.217454
H     -5.043411    3.586453    1.260173
H      1.674853   -6.079373   -0.030230
H      3.790270    5.621288    1.518356
H     -3.900617    4.515921   -3.243284
H     -1.060693   -5.347904    2.342602
H     -0.505768   -4.597933   -1.884463
