26

C     -2.948147    0.573104   -0.167207
C      1.299851   -1.841006   -0.394865
C      1.854610    1.272242    0.738976
C     -1.511105    0.508140    0.141244
C     -0.799922   -0.625415   -0.015913
C      0.649657   -0.652519    0.306054
O      1.228163    0.489889   -0.201531
C     -0.670197   -0.017659   -0.027451
C      0.807087    0.020092    0.018513
O      1.450586   -1.051225    0.166217
O      1.557051    1.181741   -0.092263
Hg     0.000000    0.000000    0.000000
H     -3.542109    0.140748    0.672379
H     -3.143899   -0.083298   -1.045854
H     -3.284588    1.583011   -0.407738
H      1.923430   -1.518327   -1.237974
H      0.489090   -2.529469   -0.766549
H      1.862916   -2.435120    0.366888
H      2.277994    2.153775    0.218945
H      2.704245    0.751992    1.231554
H      1.155604    1.567155    1.533307
H     -1.006494    1.394701    0.505376
H      0.790705   -0.749605    1.413012
H     -1.100058    0.937205   -0.368421
H     -0.978429   -0.849398   -0.697571
H     -1.066040   -0.220756    1.000975
