27

C     -2.230810    1.929178    0.509511
C     -2.903050   -0.436725   -0.181553
C      3.514909   -0.672005   -0.585485
C      1.738733    0.552675    0.876908
C      0.430864    1.199636    0.481804
C      1.172213   -1.289999   -0.604645
C     -1.854658    0.547799    0.155464
C      2.103852   -0.487653   -0.111882
C     -0.603403    0.176471    0.134644
C     -0.244834   -1.211580   -0.222176
O     -1.015829   -1.701594   -1.277024
H     -3.213689    2.228249    0.052532
H     -2.310865    2.090113    1.604812
H     -1.504109    2.690445    0.144728
H     -3.872273   -0.093108    0.285688
H     -3.061411   -0.573530   -1.262854
H     -2.688803   -1.408887    0.326867
H      3.913196   -1.609723   -0.186717
H      4.106310    0.197770   -0.196349
H      3.594133   -0.635724   -1.686579
H      1.672342    0.096402    1.883407
H      2.540726    1.300152    0.883187
H      0.077034    1.845853    1.305526
H      0.655198    1.865594   -0.382686
H      1.468594   -2.058485   -1.339166
H     -0.431759   -1.860460    0.677107
H     -1.052611   -2.680864   -1.285069
