107

C     -5.412984    0.512566   -3.065048
C     -8.325615    1.448443   -0.520367
C     -2.759290    2.722328    1.763088
C      2.567924    3.614905    1.317883
C      1.741066   -2.997394   -2.695679
C     -6.313024    2.130208    3.667623
C     -4.084769    0.080007   -2.570909
C      6.742713   -0.620080    4.240304
C      5.587480   -0.336881    4.893186
C      6.645505    0.667266   -3.324956
C     -4.556496   -2.813377   -1.601494
C      5.128500    0.638764   -3.338877
C      6.702646   -0.728609    2.847222
C      4.412876   -0.160414    4.222879
C     -4.978881   -1.649099   -1.175653
C     -1.909842   -2.090189    1.087292
C      7.245242   -0.206389   -2.256028
C     -3.166241   -2.954131   -2.055505
C     -1.907174   -2.970581   -0.108052
C      0.441615   -0.507878    0.014608
C      0.218808    1.947458    1.122490
C      3.346003    0.647197   -1.569834
C      5.750164    1.107035   -1.052007
C      6.370478   -0.939980   -0.150969
C     -6.852598    1.576228   -0.465802
C      4.742737    0.305064   -1.887773
C      5.549233   -0.561316    2.119033
C      5.245821   -0.614284    0.753133
C     -0.791724   -0.068374    0.478325
C      1.579659    0.262130    0.093090
C      4.405829   -0.275096    2.834465
C     -0.920758    1.165881    1.039158
C      1.445884    1.527602    0.668356
C      3.878384   -0.347764    0.670958
C     -2.664863   -0.888657   -0.875863
C     -2.899408    0.105416    1.456605
C     -4.638168    0.507657   -0.193599
C      2.685151   -1.577281   -1.000228
C     -5.264096    0.420734    2.235124
C     -4.067958   -0.488906   -1.152954
C     -2.125524   -0.715870    0.491879
C      2.889436   -0.244045   -0.397850
C     -4.348022   -0.024636    1.206685
N      3.417559   -0.154278    1.918450
N     -2.297040    1.387913    1.447286
N      6.866365    0.193891   -0.905384
N     -2.244338   -2.183092   -1.268319
O     -6.332014    2.701742   -0.609869
O      3.200987   -2.628174   -0.501724
O     -6.024036   -0.390011    2.834500
O     -4.577714   -1.433634    1.055613
O      2.576355    2.333570    0.763712
O      1.919600   -1.728400   -2.140725
O     -5.389566    1.733830    2.643680
O     -6.065830    0.481605   -0.260838
H     -6.263511   -0.088828   -2.710041
H     -5.419262    0.326623   -4.189430
H     -5.573737    1.617110   -3.016342
H     -8.682654    0.630751    0.133163
H     -8.615489    1.156784   -1.558250
H     -8.845814    2.411487   -0.323860
H     -3.586033    3.098250    1.170876
H     -2.919253    2.821411    2.878189
H     -1.923588    3.465836    1.583469
H      1.694821    4.230224    1.030012
H      3.468053    4.155903    0.944060
H      2.648822    3.622947    2.422329
H      1.194901   -2.900063   -3.648262
H      1.219475   -3.665300   -1.966555
H      2.717591   -3.502363   -2.901987
H     -7.217682    1.463572    3.607089
H     -5.806025    2.009049    4.651256
H     -6.626229    3.168290    3.570345
H     -3.605906   -0.571660   -3.298280
H     -3.466052    1.028670   -2.476129
H      7.692390   -0.764126    4.764589
H      5.637019   -0.255271    5.987824
H      7.057047    1.693619   -3.342675
H      6.967819    0.210455   -4.297822
H     -5.262056   -3.657685   -1.606173
H      4.719996    1.676652   -3.509566
H      4.726739   -0.087012   -4.045201
H      7.644098   -0.953785    2.355148
H      3.494832    0.065439    4.750410
H     -6.028444   -1.568386   -0.839379
H     -0.892098   -2.191362    1.570333
H     -2.612943   -2.358751    1.879994
H      6.887470   -1.251500   -2.470526
H      8.327596   -0.194346   -2.380229
H     -2.903642   -4.042184   -1.870391
H     -3.008958   -2.849945   -3.146819
H     -2.625325   -3.832285    0.025343
H     -0.934058   -3.465035   -0.311562
H      0.458889   -1.523329   -0.418444
H      0.138429    2.950746    1.573036
H      2.693723    0.333513   -2.431931
H      3.270267    1.709179   -1.354124
H      6.049761    2.043240   -1.609221
H      5.336728    1.463268   -0.109424
H      6.173447   -1.838911   -0.781703
H      7.259803   -1.268960    0.468542
H      4.869197   -0.773925   -1.804986
H     -2.027178   -0.184349   -1.520287
H     -2.695470   -0.332161    2.488910
H     -4.204048    1.481852   -0.368365
H      2.431675    0.053701    2.237256
H     -5.421183   -1.687668    1.475472
