49

C      2.300980   -3.354159    1.291661
C      0.787164    4.743285   -0.558395
C     -6.066956   -0.895394   -0.525521
C     -3.355402    2.738054    0.895425
C     -2.148584   -2.115987    0.399852
C      3.332480    1.452472   -1.035204
C     -3.424430   -1.687408    0.095186
C      2.518992    2.525588   -0.885556
C      0.158847   -1.834420    0.858263
C      3.575564   -2.173092   -0.269051
C     -1.095400   -1.208656    0.523107
C      2.910503    0.182382   -0.702534
C      1.380424   -1.491623    0.113937
C      3.914014   -0.891684   -0.943772
C      1.259526    2.340547   -0.396766
C     -3.714820   -0.353814   -0.099845
C      1.626846   -0.073762   -0.193469
C     -1.409043    0.114116    0.323916
C      0.843528    1.071336   -0.066732
C     -2.680987    0.547516    0.019825
N      2.582164   -2.009656    0.773542
O      5.134964   -0.416375   -0.426345
O      0.385902    3.439994   -0.228851
O     -5.014735    0.048441   -0.406557
O     -2.964652    1.900308   -0.175745
O     -0.485732    1.156140    0.405183
H      1.641592   -3.299531    2.174637
H      1.914073   -3.982439    0.477142
H      3.252827   -3.803471    1.626788
H      1.251920    4.725703   -1.586556
H     -0.087700    5.414751   -0.657036
H      1.572678    5.142699    0.105815
H     -5.884454   -1.602789   -1.355493
H     -7.040234   -0.430603   -0.672124
H     -6.053277   -1.531864    0.406805
H     -2.805695    3.691464    0.901337
H     -4.453126    2.887253    0.862619
H     -3.114609    2.209569    1.830939
H     -1.917882   -3.154370    0.552657
H      4.336056    1.645160   -1.431543
H     -4.252727   -2.397005   -0.002232
H      2.840360    3.528654   -1.143167
H      0.101064   -2.966465    0.876998
H      0.370017   -1.591360    1.942728
H      4.497539   -2.658968    0.100166
H      3.132881   -2.892575   -1.013735
H      1.340564   -2.029788   -0.874623
H      3.993852   -1.033906   -2.045764
H      5.013125    0.375728    0.138087
