49

C     -2.343106   -3.330902   -0.962378
C     -0.861980    4.799967   -0.198843
C      5.998751   -1.400503   -0.278289
C      3.589702    2.679188    0.433313
C      2.062062   -2.213267    0.649032
C     -3.407052    1.628583   -0.606708
C      3.359558   -1.906724    0.334743
C     -2.554137    2.672377   -0.469554
C     -0.207741   -1.668435    0.959329
C     -3.574384   -1.794017    0.409859
C      1.128813   -1.187696    0.597034
C     -2.934674    0.338454   -0.486962
C     -1.248779   -1.386646   -0.126657
C     -3.921304   -0.755393   -0.650285
C     -1.224566    2.418565   -0.211730
C      3.717294   -0.604067   -0.023736
C     -1.618192    0.024479   -0.230083
C      1.486300    0.107354    0.240246
C     -0.766737    1.114089   -0.094433
C      2.786940    0.401451   -0.071835
N     -2.296711   -2.312221    0.084499
O     -5.221747   -0.290598   -0.420048
O     -0.364208    3.487169   -0.073783
O      5.040652   -0.366875   -0.327422
O      3.159804    1.669343   -0.425423
O      0.612296    1.187403    0.164604
H     -2.749169   -2.925422   -1.892857
H     -2.906357   -4.224167   -0.603800
H     -1.290485   -3.646470   -1.158828
H     -0.011364    5.537203   -0.146076
H     -1.561443    4.999859    0.641851
H     -1.390921    4.897371   -1.156698
H      5.963263   -1.919280    0.724339
H      5.808737   -2.169493   -1.026636
H      7.004241   -0.941954   -0.369547
H      4.302414    3.325218   -0.157447
H      2.741465    3.344202    0.689540
H      4.142673    2.343167    1.310707
H      1.763133   -3.231544    0.932906
H     -4.469281    1.820710   -0.812493
H      4.104380   -2.683756    0.366993
H     -2.922227    3.687351   -0.563039
H     -0.525348   -1.186595    1.910789
H     -0.201905   -2.759525    1.120713
H     -3.539053   -1.331198    1.406613
H     -4.318798   -2.608587    0.372461
H     -0.725940   -1.648865   -1.095128
H     -3.798398   -1.193137   -1.648811
H     -5.816473   -0.796167   -1.020170
