107

C     -4.803650   -2.872466   -0.281355
C     -8.244633    0.497860   -2.011117
C     -3.391023   -0.460985    2.800927
C      1.488828   -1.270851    4.683255
C      3.179729   -3.961186    1.611586
C     -6.732903    3.577155    2.194583
C     -3.552995   -2.069332   -0.436960
C      5.349069    1.970986   -4.249487
C      4.363829    2.908427   -4.073184
C      7.427288   -1.220081    2.017433
C     -3.851430   -0.842005   -3.563942
C      6.119390   -0.782955    2.699742
C      5.486837    0.926459   -3.336034
C      3.530243    2.784419   -2.981998
C     -4.337901   -1.077455   -2.389144
C     -1.618171    2.215033   -1.092930
C      7.174106   -1.696588    0.601095
C     -2.576406   -0.120374   -3.697722
C     -1.956001    1.891356   -2.506340
C      0.592843    0.437267    0.235326
C     -0.285202   -0.320761    2.670817
C      3.938823    0.250842    1.904761
C      6.107327    0.358005    0.577217
C      5.621864   -1.124777   -1.164886
C     -7.180427    0.121836   -1.020084
C      5.224365   -0.430201    1.505851
C      4.659787    0.793041   -2.242490
C      4.547170   -0.104290   -1.188243
C     -0.783378    0.521386    0.491711
C      1.515488   -0.006291    1.157816
C      3.672564    1.737667   -2.071385
C     -1.200088    0.132336    1.730031
C      1.063341   -0.404010    2.425502
C      3.469891    0.313358   -0.381855
C     -2.422452   -0.066297   -1.282893
C     -2.944394    1.239502    0.820564
C     -4.779550    0.130954   -0.393811
C      2.991185   -1.728348    0.753180
C     -5.259320    1.883086    1.239750
C     -3.754888   -0.699030   -1.059994
C     -1.958288    0.953074   -0.295635
C      2.923434   -0.190456    0.887075
C     -4.279012    1.389692    0.260373
N      2.985426    1.423066   -0.953509
N     -2.644550    0.290849    1.818722
N      6.733156   -0.654292   -0.294622
N     -2.170764    0.516837   -2.534357
O     -7.449647   -0.485686    0.037911
O      2.911757   -2.154151   -0.414956
O     -5.660413    1.137082    2.155893
O     -4.201559    2.448598   -0.678705
O      1.930117   -0.873368    3.419409
O      3.125848   -2.548187    1.828845
O     -5.801850    3.167690    1.232370
O     -5.890109    0.438910   -1.257799
H     -5.171527   -3.323186   -1.247929
H     -5.606089   -2.420039    0.292139
H     -4.503440   -3.800937    0.308263
H     -7.773435    0.505250   -3.014989
H     -9.061276   -0.245137   -1.984946
H     -8.651693    1.471853   -1.712456
H     -3.681518    0.191756    3.668093
H     -2.710669   -1.222795    3.312460
H     -4.197158   -1.082779    2.406705
H      0.636839   -1.997338    4.537700
H      1.087223   -0.436114    5.290975
H      2.259878   -1.856973    5.223026
H      4.224146   -4.326849    1.592574
H      2.555075   -4.438872    2.383639
H      2.739337   -4.245300    0.634035
H     -6.657487    4.702184    2.270528
H     -7.788379    3.318138    1.898350
H     -6.588539    3.117993    3.195112
H     -2.931752   -2.644809   -1.206949
H     -2.912392   -2.073486    0.454668
H      6.018648    2.049899   -5.104470
H      4.271223    3.710910   -4.791270
H      8.212092   -0.471024    2.091600
H      7.769584   -2.113078    2.582249
H     -4.396404   -1.183605   -4.447701
H      6.280618    0.141353    3.272519
H      5.679398   -1.609015    3.270917
H      6.257156    0.218576   -3.497068
H      2.765440    3.544266   -2.877727
H     -5.300658   -1.617296   -2.313934
H     -0.485342    2.295896   -1.031603
H     -2.037151    3.127968   -0.679093
H      6.558191   -2.592912    0.606835
H      8.181686   -2.021725    0.227286
H     -1.808019   -0.845430   -4.039752
H     -2.635700    0.635231   -4.533165
H     -1.054717    2.107400   -3.167261
H     -2.748812    2.521181   -2.964500
H      0.813242    0.693123   -0.796725
H     -0.613475   -0.637890    3.671210
H      3.782750    0.079669    2.934684
H      4.116957    1.348045    1.679689
H      6.970811    0.820865    1.126187
H      5.642323    1.172585    0.037044
H      5.344791   -2.143373   -0.895502
H      6.106725   -1.211110   -2.160688
H      4.961894   -1.429547    1.091229
H     -1.653482   -0.904467   -1.218447
H     -2.619009    2.252668    1.217158
H     -5.249001   -0.438027    0.416645
H      2.226856    2.062066   -0.619816
H     -5.028462    2.951891   -0.743777
