42

C      4.076712   -0.405924   -0.934853
C      3.468809   -0.072417    1.379647
C     -1.537908   -2.359530    1.048314
C     -1.567345    2.686587   -0.158498
C     -2.760597   -1.535824   -0.927346
C     -2.713445   -0.071529   -0.654241
C      1.320804    1.449708   -0.343832
C      0.368914    1.566147    0.791597
C      0.776424   -0.979590    0.029734
C      3.116429   -0.154890   -0.063824
C     -1.462820   -2.038735   -0.398898
C      1.734123    0.033394   -0.554859
C     -0.511241   -0.910013   -0.734247
C     -1.236715    0.347681   -0.725739
C     -1.026046    1.335171    0.343003
O     -1.788879    1.059685    1.502434
H      3.865195   -0.476520   -2.014190
H      5.084426   -0.542962   -0.572834
H      3.043589    0.822315    1.876295
H      3.061567   -0.992419    1.862684
H      4.566504   -0.001323    1.487937
H     -2.109040   -1.665119    1.666097
H     -0.550113   -2.536707    1.511847
H     -2.072937   -3.352068    1.131520
H     -2.186623    2.546334   -1.071883
H     -2.068712    3.241772    0.633903
H     -0.701667    3.325634   -0.493659
H     -2.794623   -1.761196   -2.022027
H     -3.609640   -2.016043   -0.389091
H     -3.342542    0.481798   -1.348094
H     -3.117763    0.091979    0.377079
H      2.211581    2.123029   -0.188416
H      0.816655    1.872077   -1.251602
H      0.443965    2.634350    1.162566
H      0.659083    0.971986    1.686149
H      0.695243   -0.975322    1.108857
H      1.228433   -1.983191   -0.239797
H     -1.181470   -2.981894   -0.940215
H      1.729932   -0.150459   -1.647913
H     -0.201327   -1.144647   -1.802188
H     -1.159074    0.887178   -1.717397
H     -2.567865    1.631499    1.595979
