49

C      4.098311    0.558155    1.171989
C      3.972820   -0.725408    0.427649
C     -1.468065    1.840722    2.145183
C     -2.845655    2.019742    2.076716
C     -1.325075   -2.687449    0.432026
C     -0.258096   -1.703288    0.869784
C     -0.479863    0.475242   -2.070843
C      0.984945    0.413462   -2.313355
C      0.640807    0.795180    1.210365
C      2.983145    1.050974   -1.169711
C      4.113464    0.652199   -0.297400
C     -0.847595    1.092341    1.185100
C     -2.576259   -2.053343   -0.114100
C     -3.588273    1.439325    1.037738
C      0.888487    0.382962   -0.117850
C     -1.617795    0.559883    0.204264
C     -2.966075    0.685866    0.072039
C     -2.305303   -1.077979   -1.233329
C     -1.117484   -0.254632   -0.975348
C      0.059983   -0.879897   -0.297445
F     -3.380245   -3.047164   -0.607139
N      1.848043    0.226202   -1.076647
O     -4.963659    1.615199    0.967139
O      0.588961   -1.805236   -1.199158
O     -3.334343   -0.044679   -1.077575
H      5.112755    0.670150    1.687865
H      3.301556    0.879527    1.839649
H      4.814699   -1.430732    0.312254
H      2.966393   -1.187251    0.359472
H     -0.886008    2.299724    2.959902
H     -3.378481    2.614087    2.830762
H     -0.908754   -3.481210   -0.221367
H     -1.640906   -3.217232    1.368022
H      0.637513   -2.363098    1.079333
H     -0.562664   -1.278519    1.793109
H     -0.935111    0.057052   -3.035900
H     -0.898345    1.529108   -2.077840
H      1.280062    1.443225   -2.626057
H      1.325386   -0.237803   -3.107604
H      0.875024    0.124330    2.065541
H      1.141692    1.765620    1.482377
H      3.348663    1.214703   -2.215290
H      2.681708    2.098917   -0.824183
H      5.157036    0.772013   -0.765684
H     -3.112200   -1.612866    0.746506
H      0.448661    1.350818   -0.597856
H     -2.357117   -1.481197   -2.236648
H     -5.415485    2.167755    1.682184
H     -0.101256   -2.225500   -1.748638
