50

C     -2.586787    2.931325   -0.066252
C      4.369812    0.363942   -0.576168
C      4.038122   -1.038760   -0.946581
C      4.000281    0.750145    0.818048
C      2.802987   -1.572553   -0.242605
C     -3.750700    0.923190    0.632305
C     -3.710065   -0.536220    0.312113
C     -0.603785   -0.651188   -1.444086
C     -0.952709   -2.692284   -0.400654
C      0.453787    1.712248    1.176835
C     -2.420376    1.643363    0.714934
C     -0.439254   -1.391783   -0.110157
C      2.627409    0.359888    1.221949
C      1.925327   -0.378055    0.061390
C     -2.873804   -0.913492   -0.858676
C     -1.843957    0.164522   -1.161271
C     -0.096901    0.686089    0.637084
C     -2.373023   -2.313646   -0.892210
C      1.799650    1.492726    1.716984
C      0.590333   -0.701547    0.553587
N     -1.409912    0.837649    0.089983
O     -3.078269   -3.181530   -1.308292
O      2.245075    2.251232    2.584245
H     -1.984609    3.761416    0.284287
H     -2.378503    2.791614   -1.149230
H     -3.660154    3.259476    0.062099
H      3.945451    1.125096   -1.263230
H      5.486736    0.475755   -0.661238
H      3.771258   -1.035515   -2.044620
H      4.899670   -1.735841   -0.871673
H      4.765498    0.321389    1.528500
H      4.121802    1.855380    0.908936
H      2.270718   -2.277359   -0.905202
H      3.094384   -2.115791    0.675544
H     -4.445728    1.420296   -0.076998
H     -4.269902    1.009292    1.632821
H     -3.568913   -1.184284    1.228851
H     -4.793460   -0.790746    0.067249
H      0.193257    0.058064   -1.670929
H     -0.706876   -1.304788   -2.316848
H     -0.463089   -3.274298   -1.189503
H     -1.149398   -3.389465    0.458275
H     -0.088403    2.644772    1.216608
H     -2.218190    1.915797    1.748851
H     -1.276896   -1.147326    0.658807
H      2.666343   -0.381462    2.046764
H      2.009555    0.306718   -0.793129
H     -3.542119   -0.856546   -1.778423
H     -2.116974    0.868660   -1.929773
H      0.725297   -1.065565    1.620698
