45

C     -4.295908   -1.492215   -0.756892
C     -0.488725    3.562831   -0.256256
C      3.585183    1.443818   -1.468879
C     -2.966079   -1.515161    0.002837
C     -1.287562    2.255054   -0.167693
C      3.196900    0.668647   -0.222131
C      1.035557   -2.795436    1.656879
C     -2.248304   -0.196718   -0.178598
C      2.102632   -1.936611    0.995634
C     -0.222551   -2.437013    0.850210
C      0.797394    1.169211   -0.739469
C     -0.286284    1.206090    0.307845
C      1.823569    0.091679   -0.473389
C     -0.942937   -0.136596    0.533624
C      1.301951   -0.686453    0.718007
N     -0.015618   -1.171065    0.267141
H     -4.200266   -1.059245   -1.752067
H     -5.080024   -0.999716   -0.123406
H     -4.624770   -2.563759   -0.837152
H      0.044284    3.623416   -1.232489
H     -1.269693    4.377235   -0.277338
H      0.181575    3.692263    0.602572
H      2.706058    1.649906   -2.099376
H      4.336257    0.891334   -2.084611
H      4.070649    2.407432   -1.165840
H     -3.243750   -1.682643    1.063383
H     -2.392766   -2.338220   -0.447336
H     -2.097528    2.422325    0.558283
H     -1.639734    2.054199   -1.199584
H      3.242757    1.305704    0.658337
H      3.931527   -0.151391   -0.127151
H      1.270644   -3.856966    1.607037
H      0.940099   -2.457894    2.706406
H     -2.148999   -0.003647   -1.267139
H     -2.915858    0.576391    0.286149
H      2.416299   -2.421569    0.066367
H      2.912679   -1.744695    1.706727
H     -1.057494   -2.547896    1.534079
H     -0.216000   -3.204302    0.019457
H      0.395581    1.107350   -1.773530
H      1.332596    2.143180   -0.674944
H      0.149332    1.613908    1.242316
H      1.831724   -0.615277   -1.327817
H     -1.175440   -0.170716    1.639638
H      1.211041   -0.076766    1.630161
