45

C     -3.937072   -0.995956   -0.256961
C     -0.731616    3.272371    0.165414
C      3.989482    0.832662   -0.713810
C     -3.323069   -0.191843    0.863442
C     -0.396020    2.386581   -0.981718
C      2.963356   -0.201321   -1.125181
C      0.411384   -2.963076    1.218541
C     -2.185193    0.650864    0.356560
C      1.326409   -2.667103    0.088488
C     -0.323915   -1.627809    1.494294
C      1.195286    0.983109    0.193161
C     -0.027441    0.997765   -0.725017
C      1.911079   -0.327085   -0.045910
C     -1.054459    0.000506   -0.264226
C      0.855415   -1.334041   -0.429518
N     -0.352082   -1.033426    0.310368
H     -3.173007   -1.611470   -0.796063
H     -4.311481   -0.265350   -1.007529
H     -4.752038   -1.600244    0.145725
H     -0.326636    4.331413    0.010197
H     -0.292378    2.993132    1.141421
H     -1.811816    3.451623    0.329646
H      4.975552    0.623275   -1.197691
H      3.672895    1.854546   -1.058184
H      4.110067    0.892589    0.392684
H     -4.141018    0.554226    1.136017
H     -3.159717   -0.715927    1.795741
H     -1.194679    2.540416   -1.745183
H      0.500201    2.870286   -1.487594
H      3.493170   -1.139444   -1.309660
H      2.454894    0.118218   -2.053038
H     -0.394348   -3.648377    0.821870
H      0.883151   -3.338050    2.126017
H     -1.883826    1.274149    1.238055
H     -2.671797    1.350487   -0.354050
H      2.364913   -2.647039    0.471309
H      1.290422   -3.443940   -0.701285
H      0.373750   -1.123547    2.231118
H     -1.176931   -1.955114    2.079449
H      0.906401    0.994236    1.263460
H      1.891395    1.803905   -0.065453
H      0.428422    0.576869   -1.705367
H      2.422973   -0.638870    0.880749
H     -1.465763   -0.457069   -1.236279
H      0.665687   -1.427127   -1.494009
