54

C     -3.116827    3.160885    1.436884
C     -2.078047    2.276052    0.745067
C     -1.519406    1.319496    1.764822
C      1.671812    1.216728   -1.722226
C      2.609710    2.292075   -1.296040
C      1.657949    0.035264   -1.084835
C      3.457890    1.837251   -0.124088
C     -2.222526   -4.520001    0.330047
C     -1.107639   -4.655636   -0.339188
C     -0.480606    0.409561    1.162128
C     -3.181794   -3.456224    0.016559
C      0.706180   -0.989092   -1.554053
C     -0.805054   -3.726184   -1.428148
C      4.387926    2.966549    0.265407
C     -2.309582   -1.193229    0.629565
C     -1.146781   -0.372958    0.047154
C     -2.562366   -2.179109   -0.486244
C     -0.265075   -1.446855   -0.520478
C     -1.298103   -2.341069   -1.226399
C      5.250342    2.594184    1.410092
O      6.235191    1.837143    1.259434
O      4.970737    3.088223    2.679661
H     -3.509435    3.885485    0.671237
H     -2.687133    3.753008    2.252153
H     -3.983084    2.541011    1.744020
H     -2.637920    1.763770   -0.063640
H     -1.254167    2.907928    0.367407
H     -2.358780    0.720077    2.165162
H     -1.049846    1.948435    2.571524
H      0.990999    1.361729   -2.542669
H      2.083967    3.236212   -1.061114
H      3.314717    2.475583   -2.142096
H      2.336731   -0.127467   -0.257162
H      2.804044    1.634871    0.745019
H      4.063100    0.954147   -0.384448
H     -2.447501   -5.208343    1.136128
H     -0.394551   -5.439318   -0.112572
H      0.308795    1.017301    0.742478
H     -0.147119   -0.331241    1.909529
H     -3.977838   -3.805327   -0.673812
H     -3.730267   -3.198369    0.969242
H      1.329507   -1.875125   -1.866977
H      0.192642   -0.683643   -2.496431
H      0.293990   -3.680289   -1.590145
H     -1.277479   -4.120359   -2.366025
H      5.001841    3.218655   -0.627678
H      3.802348    3.871399    0.547536
H     -1.927636   -1.660176    1.550265
H     -3.189446   -0.539282    0.811977
H     -1.498459    0.240350   -0.780713
H     -3.357070   -1.692453   -1.128650
H      0.269348   -2.022537    0.263146
H     -1.414803   -1.876240   -2.250033
H      5.196575    2.577155    3.509665
