23

C      0.556707   -1.530555   -0.056644
C      1.592484   -0.470285   -0.191282
C     -1.758763   -0.660139   -0.143658
C     -0.633238   -1.136012    0.759894
C      1.054291    0.929122   -0.185149
C     -1.381571    0.793574   -0.390011
C     -0.233555    1.071879    0.571800
N     -0.398368    0.031313    1.574895
O      1.989971    1.776607    0.442540
O     -0.976432    0.989264   -1.709131
H      1.038081   -2.420807    0.428126
H      0.218488   -1.874729   -1.045331
H      2.351990   -0.560158    0.623705
H      2.103483   -0.617887   -1.180596
H     -1.775160   -1.191991   -1.111170
H     -2.711985   -0.698845    0.407809
H     -0.957226   -1.994514    1.389776
H      0.892574    1.319922   -1.223437
H     -2.235372    1.468837   -0.170023
H     -0.363304    2.044143    1.054511
H      0.476617   -0.127631    2.128637
H      1.803539    2.691495    0.165830
H     -0.653250    0.167397   -2.141091
