15

C      1.158391    1.156503   -0.050893
C     -0.134507    1.321010   -0.262685
C      1.712874   -0.198246   -0.097380
C     -0.951879    0.120430   -0.537351
C      0.882921   -1.283044    0.490834
C     -0.508433   -0.997082    0.360747
I     -1.022816    3.251874   -0.212042
O      2.833125   -0.363742   -0.619168
O     -2.304450    0.406437   -0.332220
O      0.097578   -2.095032   -0.286774
H      1.767681    2.029703    0.147611
H     -0.848813   -0.189156   -1.610356
H      1.241197   -1.691302    1.473966
H     -1.193231   -1.252496    1.221707
H     -2.729637   -0.215857    0.314005
