47

C     -7.964834    0.046897    0.753236
C      2.181585   -0.995214   -2.459384
C      0.738033   -1.040805   -1.946079
C      2.834804    0.312173   -2.141979
C     -3.183023    0.544757    1.526469
C     -3.883727   -0.808000   -0.280038
C     -1.441843   -0.553106    0.115721
C      3.870655   -0.753894    0.736869
C      4.737056    1.401600    0.373384
C      4.965990   -1.030883    1.560586
C      5.821201    1.144326    1.181467
C     -4.506365    0.807608    1.842516
C     -5.217601   -0.539254    0.043560
C     -0.938503    0.476599   -0.856026
C     -2.857538   -0.263883    0.464425
C      3.742003    0.477478    0.127667
C      5.927350   -0.084253    1.774985
C     -5.543857    0.272385    1.109550
C      0.480643    0.274474   -1.271351
C      2.594521    0.798650   -0.748567
O      7.031157   -0.352200    2.600289
O     -6.870914    0.555158    1.451867
O      1.380818    0.392737   -0.213999
H     -8.884799    0.443407    1.229195
H     -7.992532   -1.060221    0.939556
H     -7.957655    0.282903   -0.326866
H      2.192621   -1.100023   -3.580866
H      2.790937   -1.808929   -2.066478
H      0.692340   -1.900513   -1.247588
H      0.069365   -1.186280   -2.827361
H      3.946669    0.156891   -2.257023
H      2.582909    1.080255   -2.922463
H     -2.426357    1.000813    2.147981
H     -3.712368   -1.454334   -1.131031
H     -0.854820   -0.463281    1.058226
H     -1.393241   -1.575086   -0.252293
H      3.127074   -1.514351    0.583114
H      4.657552    2.372583   -0.092863
H      5.080825   -1.998621    2.048201
H      6.603347    1.888502    1.367002
H     -4.784133    1.443978    2.677772
H     -6.013847   -0.973959   -0.550637
H     -1.594415    0.464618   -1.748593
H     -1.018695    1.481087   -0.394711
H      0.720548    1.072071   -2.016439
H      2.538442    1.925667   -0.807420
H      7.732623    0.339471    2.756315
