47

C      6.962479   -0.107935    1.086524
C     -0.447522   -2.352653    0.195233
C      0.412037   -1.128108   -0.157659
C     -1.872296   -1.835031    0.163765
C      3.656904    0.700210   -1.359821
C      2.407591    1.339340    0.543856
C      1.353253    1.473383   -1.696689
C     -4.246273    0.114316   -0.586704
C     -4.027668    0.142206    1.750541
C     -5.582478    0.410537   -0.461609
C     -5.362005    0.438486    1.890035
C      4.760975    0.425630   -0.582243
C      3.488609    1.076395    1.355204
C      0.455275    0.418164   -2.172272
C      2.451844    1.164591   -0.812741
C     -3.423324   -0.029619    0.525171
C     -6.167554    0.578237    0.766416
C      4.680778    0.613431    0.783898
C     -0.344730   -0.353665   -1.187345
C     -1.974713   -0.349934    0.412973
O     -7.530215    0.880785    0.908260
O      5.734046    0.363443    1.627045
O     -1.359814    0.425308   -0.573117
H      7.706567   -0.267215    1.908727
H      6.820608   -1.053599    0.547799
H      7.417655    0.661667    0.424939
H     -0.349874   -3.092710   -0.624441
H     -0.171247   -2.769485    1.183342
H      1.407267   -1.379956   -0.500318
H      0.415977   -0.523856    0.783389
H     -2.421503   -2.132283   -0.743202
H     -2.444938   -2.309101    1.014608
H      3.748855    0.544118   -2.424273
H      1.489892    1.695794    0.984421
H      1.815267    2.005556   -2.597490
H      0.689224    2.309432   -1.278784
H     -3.779587   -0.019601   -1.570969
H     -3.426499    0.039811    2.647780
H     -6.180664    0.512796   -1.342471
H     -5.841474    0.574726    2.859588
H      5.698149    0.067115   -0.985390
H      3.435929    1.220719    2.430221
H     -0.321765    0.899816   -2.865700
H      0.953821   -0.304659   -2.884690
H     -0.978416   -1.136678   -1.750922
H     -1.474337   -0.123325    1.375647
H     -8.234104    0.173397    0.989467
