56

C      5.508036    0.657804   -1.688538
C      6.832632    0.882854   -1.614492
C      5.436336   -0.242545    0.467445
C      1.655405   -1.304421    0.677191
C      0.311174    1.917838   -0.605068
C     -5.633826   -0.831993   -1.801906
C      4.734414    0.094372   -0.678459
C      0.676036   -0.227895    0.357207
C      7.523033    0.542230   -0.460940
C      6.792042   -0.022648    0.567347
C     -1.032364    1.797256   -0.421223
C      2.738730   -1.403153   -0.368733
C      1.191360    0.917553   -0.223160
C     -4.652528   -0.771135   -0.685958
C     -1.582372    0.667666    0.158676
C     -0.700837   -0.351712    0.550322
C     -5.326640   -0.672850    0.665694
C     -5.198825    0.683797    1.318878
C     -3.773396    1.196872    1.279533
C      3.295524   -0.122483   -0.854484
C     -2.997405    0.480281    0.225923
O     -6.550241   -1.908122   -1.608568
O      8.861433    0.765667   -0.369573
O      7.498810   -0.363904    1.716842
O     -1.941058    2.793379   -0.795074
O      3.784601   -2.259702    0.033802
O     -1.175695   -1.504193    1.129915
O     -4.971030   -1.715113    1.516300
O     -6.084837    1.543215    0.652753
O     -3.189641    1.089689    2.519881
O      2.550907    1.003120   -0.382607
O     -3.755024    0.309412   -0.906723
H      4.948635    0.945688   -2.568188
H      7.342485    1.338535   -2.481220
H      4.926326   -0.700894    1.311848
H      2.137707   -1.057437    1.635105
H      1.186167   -2.313186    0.764347
H      0.698712    2.812789   -1.063366
H     -6.288912    0.086773   -1.854070
H     -5.178787   -1.055831   -2.781926
H      2.238691   -1.978268   -1.223752
H     -3.994349   -1.669057   -0.733958
H     -6.414029   -0.806467    0.448825
H     -5.582800    0.570754    2.360117
H     -3.904775    2.299626    0.999856
H      3.122052   -0.121628   -1.987838
H     -3.062263   -0.639488    0.697537
H     -7.409752   -1.543977   -1.221900
H      9.370222    1.162697   -1.136182
H      7.000113   -0.744536    2.507764
H     -1.562651    3.631259   -1.207857
H      3.535734   -2.818254    0.823524
H     -0.652354   -2.296150    1.419468
H     -4.589639   -2.470118    1.063508
H     -5.631280    1.751564   -0.225104
H     -3.060009    1.974472    2.971223
