56

C      2.810590   -1.599570   -1.267785
C     -3.061465    4.189460   -0.188635
C      4.886311    3.101587    0.032925
C     -0.341557   -2.876741    1.901954
C     -2.376124   -1.194100   -2.032225
C     -0.057675   -1.374289    2.113449
C     -2.295367    0.091602   -1.276016
C     -1.225684   -3.120083    0.743504
C     -2.097122   -2.431280   -1.289247
C     -0.017805    1.172842    1.541097
C      0.451054   -0.675456   -1.488845
C      1.926952   -0.430405   -1.171865
C     -2.737492    2.967682    0.563540
C      4.133657    1.857261    0.310030
C      0.822041    0.517905    0.620815
C      0.491189   -0.935705    0.824883
C     -1.572766   -0.231075    0.040124
C     -1.449148    0.888453    0.987041
C      2.147191    0.450095    0.090748
C     -0.435735   -1.115972   -0.347546
N     -0.894876   -2.462682   -0.486158
O     -3.413509    2.705087    1.591873
O      4.669942    0.963538    1.014281
O     -1.733641    2.077165    0.219477
O      2.852781    1.609349   -0.165350
H      2.202937   -2.535554   -1.406635
H      3.509549   -1.595681   -2.148284
H      3.498459   -1.715910   -0.379619
H     -2.216109    4.635125   -0.717174
H     -3.936497    3.995992   -0.875480
H     -3.447317    4.967458    0.523333
H      5.849219    2.782121   -0.448043
H      5.164048    3.525867    1.039689
H      4.321021    3.802496   -0.580135
H      0.628193   -3.409672    1.847631
H     -0.858692   -3.200120    2.820282
H     -3.441879   -1.278297   -2.405064
H     -1.778788   -1.188140   -2.990368
H     -0.956526   -0.968998    2.515597
H      0.757849   -1.330392    2.876799
H     -3.322123    0.445667   -0.964793
H     -1.842893    0.926441   -1.808871
H     -1.214117   -4.218727    0.536448
H     -2.289885   -2.913411    1.060736
H     -3.013941   -2.693538   -0.682975
H     -2.005093   -3.265519   -2.021406
H      0.161401    2.265747    1.611794
H      0.014114    0.817769    2.613451
H      0.494437   -1.561779   -2.190032
H      0.009590    0.132830   -2.104002
H      2.247679    0.267734   -2.009176
H      0.383158    1.029354   -0.322050
H      1.323770   -1.662121    0.650022
H     -2.338714   -0.919954    0.532583
H     -2.189129    0.928023    1.810470
H      2.804536   -0.209484    0.733205
