50

C      6.663338    0.377824    0.617694
C     -3.385984    1.308948    2.138465
C      6.091888   -1.005601    0.691873
C      4.580061   -1.021794    0.521846
C      3.894495   -0.216033    1.581348
C      2.396367   -0.218303    1.437240
C      2.018173    0.364331    0.103175
C      0.505992    0.385546   -0.086959
C     -1.194963    1.065454   -1.763277
C     -2.140539    0.575446   -0.959179
C     -4.206927    0.498718    1.158822
C      0.259811    0.989622   -1.456411
C     -3.572111    0.644915   -1.251576
C     -4.416875    1.226809   -0.137124
C     -3.667166   -1.478981   -0.126040
C     -5.603512   -0.441431   -1.129245
C     -4.171570   -0.767757   -1.328559
N     -3.690239   -0.840460    0.995260
O      0.996503    0.371430   -2.438685
O     -3.182426   -2.763953   -0.137946
O     -6.565054   -1.193600   -1.392176
O     -3.893720   -1.395614   -2.509932
O     -5.722637    0.834290   -0.602624
H      5.932342    1.126149    0.300099
H      7.035289    0.663552    1.626752
H      7.569578    0.377379   -0.040523
H     -3.713675    2.363918    2.045788
H     -2.303157    1.213908    2.007433
H     -3.665674    0.987941    3.176286
H      6.492372   -1.603755   -0.174965
H      6.414637   -1.564643    1.595455
H      4.277701   -2.088314    0.570129
H      4.411703   -0.588810   -0.507767
H      4.276957    0.839817    1.478631
H      4.229754   -0.565979    2.569656
H      2.084204   -1.304182    1.465817
H      1.884653    0.275056    2.276570
H      2.376842    1.388711    0.002651
H      2.404832   -0.333565   -0.683844
H      0.002337    0.944695    0.710452
H      0.169851   -0.662149   -0.108618
H     -1.505984    1.538073   -2.678088
H     -1.783376    0.107722   -0.050192
H     -5.213565    0.378197    1.661032
H      0.616994    2.051396   -1.391560
H     -3.814030    1.157527   -2.199858
H     -4.327304    2.308143   -0.058767
H      1.142711   -0.586019   -2.308267
H     -3.444583   -3.411733    0.621005
H     -3.544315   -2.312841   -2.432145
