52

C      1.531580   -2.948332    0.722695
C     -4.653572    1.011214   -0.085259
C      4.463359   -0.259510    0.625006
C      1.330712    1.804048    1.612618
C      0.839714    2.319214    0.279163
C      1.232264   -2.284432   -1.516787
C     -1.385843    1.925709    0.988636
C     -1.610044    0.486139    1.090171
C      2.540504   -1.490347   -1.308142
C      2.418025    0.848728    1.574428
C     -0.773069   -2.038848    0.075913
C     -3.788698   -1.071840   -1.496970
C      0.441313   -2.376427   -0.208712
C     -3.677559   -0.020423   -0.407685
C     -0.402421    2.403710   -0.080367
C     -2.466995   -0.177203    0.111032
C     -2.033568   -1.512640   -0.457031
C      2.172823   -0.237181   -0.558467
C     -1.090763    2.853546   -1.272700
C      3.077026    0.368484    0.359069
O     -2.374875    2.806935   -1.268955
O     -0.596657    3.343959   -2.463216
O     -2.394863   -1.373634   -1.729304
O      2.999017    0.832706   -0.907416
H      2.254113   -2.188215    1.026184
H      1.299331   -3.594489    1.526158
H      2.187408   -3.660922    0.077453
H     -4.831754    1.746146   -0.897544
H     -5.656485    0.462110   -0.038765
H     -4.568120    1.449888    0.915598
H      4.829704    0.026986    1.655308
H      5.234650    0.166216   -0.053751
H      4.450034   -1.344240    0.608366
H      1.689339    2.771271    2.102666
H      0.546169    1.471430    2.291552
H      1.782697    2.596245   -0.249799
H      1.511062   -3.343008   -1.827366
H      0.807595   -1.883006   -2.392940
H     -1.092471    2.453851    1.926541
H     -2.408852    2.384352    0.781844
H     -2.135741    0.320763    2.096615
H     -0.647998   -0.065546    1.110427
H      2.939490   -1.263175   -2.324071
H      3.202957   -2.180170   -0.757972
H      3.233928    1.232503    2.270442
H      2.114129   -0.088221    2.145721
H     -1.177286   -2.062046    1.213020
H     -4.331316   -1.927461   -1.122695
H     -4.147800   -0.586530   -2.406008
H     -2.905951   -2.219985   -0.038330
H      1.084059   -0.027617   -0.423073
H     -1.060299    4.139294   -2.893298
