90

C      4.759637   -2.895553   -1.108507
C      0.357573   -3.683321    0.829608
C     -2.403388   -2.402626    0.354836
C     -5.466889    3.902903   -0.421065
C     -7.573191    0.612655    1.297855
C      0.927889   -5.424152   -2.730197
C     -6.124640   -2.124157    0.243647
C      6.584943    2.736152    0.600725
C      5.420268    2.002254    0.213901
C      7.561804    3.330049    0.922421
C      5.360078    0.980310   -0.607067
C      4.214836   -0.766344   -1.974619
C      2.286254   -2.416627   -1.689306
C      8.781579    4.460235    2.852257
C     -0.797317    0.975386    0.053221
C      1.577093    1.322856    0.440106
C      3.530657   -2.109885   -1.599539
C      0.137211   -3.117432   -0.556357
C     -1.335482   -1.387813    0.364121
C     -4.686248    2.822311    0.343580
C      8.811559    4.063505    1.344498
C      4.107263    0.281546   -0.951043
C      8.725304    5.462237    1.764108
C      1.321511   -3.557269   -1.424428
C     -1.904773   -0.066570   -0.102820
C      2.604930    0.393087    1.013020
C     -0.152521   -1.673216   -0.564871
C     -5.674105    2.229225    1.313082
C     -5.381344    0.034100    0.321515
C     -4.105954    0.607400   -0.180481
C     -6.427202    1.159054    0.503659
C      0.546864    0.496889   -0.363073
Cl    10.192710    6.479006    1.627837
O      2.687051    0.208226    2.247374
O     -5.028940    1.631436    2.367547
O     -6.800908    1.628742   -0.738703
O      0.677071    0.837554   -1.733881
O      0.780208   -4.052731   -2.608182
O     -5.894922   -0.969282   -0.463524
O     -4.209784    1.959862   -0.577659
O      3.504077   -0.294086    0.209240
O     -2.980052    0.423143    0.616222
O      0.839238   -0.820444   -0.166189
H      4.726999   -3.898850   -0.828664
H      5.555882   -2.863891   -1.931873
H      5.248236   -2.332145   -0.262866
H      0.011372   -3.046890    1.639977
H      1.426542   -3.911811    1.032622
H     -0.154529   -4.664596    0.877180
H     -2.965241   -2.279536    1.334644
H     -2.124651   -3.452263    0.354669
H     -3.205585   -2.187966   -0.409885
H     -5.720980    3.565490   -1.447832
H     -4.892365    4.846779   -0.507723
H     -6.418866    4.165494    0.082617
H     -8.243476    1.448599    1.650598
H     -8.157097   -0.061723    0.665831
H     -7.176266    0.052442    2.154865
H      0.425433   -5.975347   -1.904197
H      0.535985   -5.734117   -3.704171
H      1.998329   -5.740126   -2.652429
H     -6.875214   -1.995110    1.059601
H     -5.234749   -2.575761    0.722715
H     -6.565478   -2.886031   -0.444437
H      4.425981    2.290754    0.627891
H      6.283168    0.651075   -1.041094
H      3.975227   -0.362724   -2.965741
H      5.331163   -0.994327   -2.172099
H      1.443965   -1.709861   -2.124291
H      7.789715    4.287936    3.364359
H      9.676172    4.302678    3.450695
H     -1.094214    1.832414   -0.589851
H     -0.810936    1.387591    1.099275
H      2.019180    2.111752   -0.189314
H      1.087295    1.845802    1.287940
H     -0.735595   -3.643790   -0.995012
H     -0.990874   -1.226365    1.388690
H     -3.914309    3.387885    0.939014
H      9.716648    3.548200    1.038003
H      3.361518    1.070811   -1.290315
H      7.786657    6.032862    1.600103
H      1.720730   -4.427951   -0.905283
H     -2.190337   -0.178965   -1.175570
H     -0.491257   -1.398796   -1.589922
H     -6.448180    2.964583    1.581722
H     -5.240879   -0.353661    1.348827
H     -3.851708    0.120082   -1.174834
H     -4.153883    2.088800    2.459942
H     -7.305208    0.880528   -1.185600
H      1.065736    1.741435   -1.825064
