50

C      6.249991    0.077836    0.788235
C     -3.825796    1.760190   -1.474676
C      5.160274   -0.917947    0.455019
C      4.494574   -0.607267   -0.859370
C      3.852032    0.762817   -0.856273
C      2.800349    0.921335    0.186951
C      1.660249   -0.044868    0.045693
C      0.944984    0.096517   -1.280757
C     -1.194827   -0.762728   -0.311935
C     -1.488163    0.327729    0.356029
C     -4.333161    1.041044   -0.235737
C     -0.169545   -0.890815   -1.346795
C     -2.495045    0.514226    1.393295
C     -3.607757    1.496189    1.004779
C     -4.076331   -1.188253    0.573942
C     -4.371591    0.003227    2.599734
C     -3.316377   -0.677140    1.753446
N     -4.242273   -0.395355   -0.415042
O     -0.800102   -0.806569   -2.594765
O     -4.587658   -2.484932    0.550800
O     -4.974352   -0.543367    3.553139
O     -2.655487   -1.656732    2.441457
O     -4.502127    1.293086    2.098526
H      6.640149    0.574724   -0.123125
H      5.811272    0.833794    1.471904
H      7.104097   -0.391078    1.316448
H     -3.051588    1.184443   -1.997960
H     -3.384741    2.743479   -1.180727
H     -4.648088    1.971060   -2.181337
H      5.641157   -1.912393    0.352499
H      4.434079   -0.991272    1.290489
H      3.800044   -1.412408   -1.102087
H      5.293335   -0.578089   -1.630877
H      3.511041    1.063373   -1.861597
H      4.678554    1.482608   -0.597217
H      3.262546    0.744628    1.177083
H      2.444237    1.955277    0.175095
H      2.124483   -1.074724    0.024779
H      1.012222    0.020108    0.915782
H      0.652432    1.134877   -1.496382
H      1.686831   -0.184564   -2.062210
H     -1.767149   -1.652403   -0.070868
H     -0.897355    1.216687    0.098899
H     -5.430385    1.271532   -0.179660
H      0.262795   -1.911560   -1.288657
H     -2.046630    0.949487    2.314397
H     -3.244066    2.521817    0.948160
H     -0.412813   -1.448125   -3.244129
H     -4.921469   -2.893234   -0.313270
H     -3.076853   -2.536267    2.313792
