40

C     -3.264817    2.049590   -0.695783
C     -1.783084   -2.440372    0.927682
C     -2.810280   -1.295570    0.886171
C     -0.412147   -1.842383    1.133038
C     -2.389310   -0.213084   -0.073361
C      0.667644   -1.769613    0.448567
C      2.955242   -1.379454   -0.516667
C      3.632139   -0.136103   -0.988251
C      0.406300    1.709574   -0.306532
C     -2.723884    1.160963    0.435353
C      2.034881   -1.148074    0.706359
C      2.638758    0.999420   -1.285413
C      1.427261    0.640178   -0.451321
C     -0.334318    1.655860    0.972320
O      3.191689    2.184824   -0.836077
O      0.338906    1.417332    2.008568
O     -1.685529    1.855231    1.034655
O      1.988314    0.246227    0.786824
H     -2.615951    1.993740   -1.585887
H     -3.354398    3.055084   -0.269183
H     -4.270047    1.608840   -0.951800
H     -2.013388   -3.065820    0.112631
H     -2.111264   -3.019396    1.859825
H     -3.820860   -1.686508    0.672154
H     -2.838183   -0.852092    1.899695
H     -0.587299   -1.395642    2.194468
H     -3.037414   -0.360379   -0.990588
H     -1.365050   -0.321085   -0.429853
H      0.833280   -2.200177   -0.606152
H      2.348692   -1.872245   -1.333200
H      3.749113   -2.115613   -0.283505
H      4.120071   -0.373262   -1.944275
H      4.358200    0.172975   -0.216887
H      0.949301    2.695054   -0.421969
H     -0.277052    1.675689   -1.179986
H     -3.616001    1.042171    1.122158
H      2.597435   -1.577190    1.523556
H      2.408479    1.058952   -2.362851
H      0.952055   -0.205466   -0.990460
H      3.712516    2.047821   -0.004026
