54

C      5.271064    0.562877    0.921896
C      4.991022   -0.465910   -1.250700
C     -2.971680   -1.728600    1.525978
C     -4.439212    0.198866    1.221035
C      2.943194    2.370915    2.594434
C     -4.207709   -0.313876   -1.790058
C     -3.969285   -1.271003   -0.677975
C     -3.032983    0.579227   -2.099158
C     -0.951724   -0.054826    0.841832
C     -0.702510    1.085747   -1.293905
C      4.399272   -0.363365    0.160845
C     -2.239844    0.215094    0.167490
C      2.976277   -0.019828    0.068924
C      0.763816   -0.707120   -0.731838
C      2.046749   -0.944062   -0.636954
C      2.451804    1.067673    0.602325
C      1.019612    1.401511    0.497470
C     -0.118957   -1.634282   -1.433694
C     -3.378434   -0.656623    0.557652
C      0.102496    0.481475   -0.137717
C     -1.869021    0.091317   -1.295569
O      2.600457   -2.098317   -1.207496
O      0.582357    2.481613    0.954521
O      0.261211   -2.774646   -1.800440
O      3.306953    1.942879    1.302620
O     -1.405796   -1.164228   -1.665441
H      6.329030    0.128967    0.853944
H      5.081866    0.604461    1.995346
H      5.370016    1.569095    0.425558
H      6.042286   -0.185021   -1.240217
H      4.800002   -1.471023   -1.680036
H      4.417356    0.267182   -1.865346
H     -2.346652   -2.515963    1.085639
H     -3.892039   -2.123430    2.024129
H     -2.381004   -1.249535    2.335496
H     -4.851059   -0.273640    2.129331
H     -5.277619    0.442123    0.507985
H     -4.027148    1.185622    1.544495
H      2.011904    2.918004    2.674833
H      2.974026    1.504528    3.301172
H      3.759690    3.077503    2.917075
H     -4.395215   -0.920228   -2.718547
H     -5.147754    0.267235   -1.610079
H     -4.975919   -1.680201   -0.374994
H     -3.400398   -2.188669   -1.005789
H     -3.279805    1.600142   -1.757275
H     -2.826610    0.634196   -3.192112
H     -0.841226    0.444502    1.830057
H     -0.826783   -1.141002    1.018528
H     -1.107449    2.068755   -1.051203
H     -0.174241    1.020365   -2.245579
H      4.521555   -1.384376    0.584190
H     -2.484272    1.306653    0.322202
H      2.498333   -2.188751   -2.204883
