56

C      0.806176   -2.519035   -0.396272
C      2.468321   -0.856788   -0.824865
C      2.965061    3.380171    3.555329
C      3.296298    1.035656    3.599405
C      0.949630    1.804906    0.776409
C      1.467504   -1.368970   -0.035946
C      3.568304    2.293396    4.141057
C      1.844969    2.000196    1.929103
C      2.109148    3.263712    2.461873
C      1.142791   -3.166197   -1.551516
C      2.792776   -1.527257   -1.988982
C      2.444907    0.908197    2.508663
C      0.215832    0.492009    0.892459
C      2.138118   -2.698053   -2.382530
C     -3.996065    0.557540   -1.184106
C     -4.130360   -0.866710   -1.610379
C     -2.598763    1.012405   -0.895425
C      1.097818   -0.681407    1.226911
C     -2.757055   -1.509263   -1.610735
C     -1.925660   -1.165993   -2.756995
C     -1.800942   -0.025765   -0.191437
O      4.411602    2.366117    5.212877
O      1.537864    4.383814    1.917144
O      0.496215   -4.344353   -1.961216
O      3.756935   -1.059176   -2.774871
O      2.494124   -3.351805   -3.573946
O     -4.460516    1.333427   -2.278817
O     -4.995014   -1.529448   -0.735533
O     -2.737598    2.110943    0.001094
O     -0.755134   -0.775637   -2.661206
O     -2.466170   -1.279743   -4.022003
O      2.202185   -0.347635    1.998758
O     -0.433417    0.153753   -0.283629
O     -2.198596   -1.333043   -0.366188
H      0.030028   -2.883677    0.251536
H      2.960502    0.047383   -0.510613
H      3.200140    4.344828    4.001894
H      3.748248    0.175523    4.031694
H      0.133147    2.584766    0.858314
H      1.469826    1.913445   -0.195030
H     -0.486987    0.593137    1.751288
H     -4.681005    0.752159   -0.330852
H     -4.489654   -0.979949   -2.675470
H     -2.169705    1.382639   -1.853761
H      0.468016   -1.398293    1.833553
H     -3.026079   -2.640151   -1.672025
H     -2.000367    0.157724    0.923656
H      4.694996    3.184484    5.696638
H      0.936622    4.345129    1.131328
H     -0.249694   -4.767850   -1.410639
H      4.389058   -0.390566   -2.929456
H      1.974440   -4.187878   -3.784690
H     -4.769773    2.211857   -1.994754
H     -5.917607   -1.328848   -1.023739
H     -3.289379    1.715004    0.744654
H     -1.876061   -1.520830   -4.836465
