50

C      2.509816    0.594882    3.586170
C     -3.642890   -0.961590    3.689016
C     -2.563945    1.182553    0.082987
C     -1.947620    0.933401    1.433596
C     -2.357853    0.197673   -0.785920
C      2.377818    0.604932    0.651126
C      3.762500    2.551368    0.715413
C     -0.336029   -1.041520   -2.770860
C      3.085855    1.553200    1.384082
C      2.333815    0.634834   -0.720035
C      3.715804    2.578212   -0.666207
C     -0.822060   -2.357329   -2.199908
C      0.178009   -0.222812   -1.621115
C     -2.459753   -0.478462    1.756982
C      3.004757    1.625712   -1.398984
C      1.693269   -0.199605   -1.728986
C     -1.939128   -2.142746   -1.224126
C      2.791645    1.420691   -2.824525
C     -1.571441   -0.968566   -0.310576
O      4.375500    3.557240   -1.403458
O     -1.211205   -3.147404   -3.285754
O     -3.104343   -1.860556   -1.948852
O      3.281981    2.172007   -3.729628
O      3.141221    1.538383    2.773095
O     -2.397807   -0.742873    3.108528
O      1.994068    0.309071   -3.007619
O     -0.200109   -0.716137   -0.380851
O     -1.830439   -1.384848    0.967008
H      3.138342    0.503131    4.513869
H      2.449838   -0.421013    3.149842
H      1.535810    0.984363    3.927134
H     -4.122867   -1.829664    3.198572
H     -3.475501   -1.153524    4.765476
H     -4.304073   -0.052559    3.620175
H     -3.121083    2.059344   -0.182844
H     -0.847432    0.938592    1.405912
H     -2.398849    1.631337    2.144561
H     -2.754972    0.246731   -1.817349
H      1.863297   -0.157675    1.210616
H      4.319600    3.299987    1.260689
H      0.480680   -1.315112   -3.501797
H     -1.103266   -0.526933   -3.378054
H      0.036324   -2.814619   -1.674205
H     -0.240086    0.799698   -1.713737
H     -3.557026   -0.512744    1.481550
H      2.069160   -1.258669   -1.728375
H     -2.130872   -3.072112   -0.655893
H      4.898966    4.262396   -0.912728
H     -1.148175   -4.091219   -2.997285
H     -3.449251   -2.749450   -2.256723
