46

C      5.728034   -0.160345    0.068633
C      2.365297    2.107993   -3.726953
C     -3.632073    1.395360    1.966500
C     -2.203422    1.790455    2.303446
C     -3.545687    0.186308    1.055181
C      1.603104   -0.587853    0.404717
C      2.960996   -0.454460    0.305747
C     -1.235962    1.441464    1.213745
C      1.256477    0.657487   -1.559722
C     -2.452802   -2.063789    1.186491
C     -1.189968   -1.536542   -0.909536
C      0.716757   -0.048823   -0.504392
C     -2.306198   -0.608585    1.486378
C     -1.541663   -2.575371    0.122528
C     -0.765514   -0.232520   -0.337209
C      3.492127    0.260677   -0.764002
C      2.635857    0.813258   -1.691781
N     -1.121543    0.003437    1.013373
O     -2.190507   -3.612942   -0.548017
O      4.868813    0.413692   -0.892003
O      3.197812    1.519879   -2.745811
H      6.785147   -0.137055   -0.313999
H      5.742021    0.404593    1.025984
H      5.494532   -1.237012    0.212369
H      1.719369    1.380829   -4.235781
H      3.029470    2.666689   -4.432212
H      1.695882    2.860108   -3.253801
H     -4.203404    2.221718    1.536394
H     -4.129915    1.031385    2.911436
H     -2.198795    2.883843    2.423215
H     -1.869200    1.362590    3.268674
H     -4.445394   -0.460284    1.139927
H     -3.348040    0.486364   -0.002542
H      1.162012   -1.146905    1.238892
H      3.654970   -0.887340    1.034508
H     -1.677053    1.841912    0.254965
H     -0.273119    1.913960    1.441567
H      0.609873    1.094093   -2.290516
H     -3.529857   -2.229501    0.893780
H     -2.319730   -2.717774    2.094017
H     -2.041024   -1.464481   -1.622648
H     -0.337822   -1.967190   -1.508877
H     -2.303263   -0.519608    2.613680
H     -0.631318   -3.026923    0.591581
H     -1.230124    0.574957   -0.966968
H     -1.995154   -3.637750   -1.500953
