41

C     -3.110924    2.374660    0.936141
C      5.151775   -1.180302   -0.577712
C     -2.010079   -2.821824   -0.395432
C     -0.722393   -3.262700   -0.464437
C     -3.692262   -1.071108   -0.201629
C     -3.902214    0.402239   -0.154808
C     -0.529946    1.759813    0.298823
C      1.888135    2.201685    0.140822
C      2.488380   -0.457692   -0.300215
C     -2.274498   -1.464879   -0.285965
C      0.856846    1.271096    0.066675
C      1.182537   -0.053239   -0.156293
C     -1.600094    0.912024   -0.214778
C      0.345759   -2.337081   -0.422706
C      3.187392    1.832587    0.001774
C      3.481208    0.496198   -0.218770
C     -1.231095   -0.525881   -0.244990
C      0.072058   -1.013500   -0.314238
N     -2.806588    1.008269    0.603171
O      1.621599   -2.842834   -0.495337
O      4.208069    2.781812    0.079570
O      4.822833    0.176744   -0.351811
H     -4.199772    2.554078    0.721081
H     -2.910731    2.568346    2.026852
H     -2.557031    3.109318    0.336080
H      4.704846   -1.752857    0.266355
H      6.236554   -1.306021   -0.636500
H      4.676913   -1.494742   -1.540885
H     -2.820332   -3.548021   -0.427594
H     -0.463473   -4.322345   -0.552743
H     -4.259110   -1.457595   -1.084144
H     -4.166196   -1.516542    0.717281
H     -3.892335    0.831221   -1.177531
H     -4.844665    0.657803    0.390401
H     -0.565785    2.823115   -0.036541
H     -0.623275    1.779724    1.431017
H      1.600302    3.232272    0.314515
H      2.830087   -1.445189   -0.477501
H     -1.942053    1.189517   -1.255931
H      1.822144   -3.827516   -0.576077
H      3.947414    3.739343    0.240843
