39

C      2.938627   -1.091633    1.389592
C     -2.020876    1.958793   -0.634244
C     -2.139596   -1.297092    0.941350
C      0.443349   -2.044792   -0.578507
C      0.894319    0.750496    1.302271
C      1.347311    1.070009   -1.089757
C     -2.077968   -0.572651   -1.373134
C      2.384963   -0.830324    0.027609
C     -1.477294    1.015164    0.455142
C      1.912838   -2.062334   -0.647974
C     -0.292470    1.629049    1.085322
C      0.017308   -0.857502   -0.218763
C      1.190278    2.467633   -0.613461
C     -1.373765   -0.380766   -0.020820
C      1.192699    0.059941   -0.003609
O     -2.012231   -1.903872   -1.776319
O      2.621130   -2.946611   -1.175326
O      1.974420    3.397451   -1.008681
O      0.159453    2.729291    0.278180
H      3.956084   -1.544711    1.250740
H      3.076326   -0.163344    1.939104
H      2.326584   -1.847180    1.919112
H     -2.103980    2.956404   -0.124876
H     -1.388988    1.983285   -1.517956
H     -3.054419    1.687175   -0.916220
H     -3.225519   -1.280041    0.711882
H     -1.713411   -2.308499    0.969173
H     -2.024993   -0.863917    1.958438
H     -0.154132   -2.921919   -0.803690
H      1.733207    1.395191    1.634037
H      0.737334   -0.003509    2.106835
H      0.673446    0.849858   -1.969329
H      2.381682    1.007936   -1.543147
H     -3.148879   -0.312658   -1.307571
H     -1.625286    0.045104   -2.154449
H      3.209918   -0.429374   -0.603963
H     -2.306816    1.063653    1.227022
H     -0.511670    2.112722    2.084199
H     -2.518985   -2.516428   -1.198212
