49

C      4.569799   -2.173283   -0.422444
C     -4.503804   -1.242724    0.916875
C      0.951272   -2.737307   -1.944737
C     -2.112150   -3.639215    0.531774
C     -3.173716    1.802963    0.040906
C     -2.768242    2.719994    1.172567
C      0.764033    2.980927    0.130032
C      3.085674    2.364992    0.152250
C      2.533348   -0.340012   -0.261711
C      1.767072    1.925213    0.022848
C     -2.182338    0.714461   -0.134126
C      1.521012    0.566177   -0.184719
C     -0.636912    2.547926    0.068056
C      4.108056    1.458143    0.073528
C      3.853324    0.126213   -0.129406
C     -0.845520    1.111936   -0.107382
C      0.126523    0.145381   -0.258810
C     -2.544167   -0.591316   -0.305383
C     -0.183242   -1.175499   -0.438668
C     -1.546456   -1.515920   -0.455002
N     -1.346239    2.959574    1.251817
O      5.442336    1.858389    0.197038
O      4.843230   -0.828711   -0.216587
O     -3.891111   -0.916931   -0.319653
O      0.656403   -2.227434   -0.623834
O     -1.947217   -2.834352   -0.627503
H      5.542559   -2.737246   -0.323152
H      4.207281   -2.353631   -1.453741
H      3.893095   -2.535078    0.362349
H     -3.831021   -1.023899    1.775786
H     -4.682592   -2.343632    0.952642
H     -5.457586   -0.703287    0.983596
H      1.788909   -3.450850   -1.791877
H      0.097282   -3.320455   -2.332308
H      1.218260   -1.877096   -2.568124
H     -1.978425   -3.045665    1.454808
H     -3.119393   -4.113785    0.508139
H     -1.336777   -4.430405    0.521306
H     -4.156881    1.371347    0.256357
H     -3.177765    2.415781   -0.886360
H     -3.365628    3.649672    1.089143
H     -3.089011    2.215875    2.113790
H      0.983664    3.722936   -0.693363
H      0.972970    3.572896    1.069353
H      3.331415    3.402960    0.313544
H      2.384727   -1.377057   -0.376415
H     -1.167017    3.065978   -0.790002
H     -1.219005    4.004272    1.342041
H      5.619971    2.830786    0.344765
