181

C      9.173913   -4.980490    1.744626
C      8.281915    2.575326    0.502765
C      7.802690    2.780859   -1.883197
C     -1.672627   -1.014851   -0.986274
C     -1.838193   -2.828617    0.642826
C      1.013019   -2.714797    2.432585
C      3.822913   -2.929347    1.072956
C      3.574372    0.206320   -1.053274
C     16.612028    3.552186   -0.163689
C     16.241217    3.079390   -1.401608
C     15.663311    3.517397    0.831097
C     14.970127    2.579429   -1.675352
C     14.407447    3.025801    0.568955
C     12.664152    2.055542   -0.838945
C      4.501108   -0.050114    2.054204
C      3.174354   -0.513179    2.523235
C     12.222408    1.616414   -1.996001
C      0.864481   -2.531326   -0.467267
C     -1.124871   -0.599003    2.730032
C      0.371159   -0.401169    2.603147
C      2.317234   -2.360454   -0.724787
C      6.371535    1.402664   -0.474705
C      5.107938   -1.689222   -1.170077
C     -4.630213   -5.155740   -0.845197
C    -10.447014    3.883644   -2.284279
C     -8.880692    3.046244    2.202941
C      7.308230   -1.665950    1.477316
C      8.401875   -3.782437    2.113157
C     14.017887    2.542494   -0.684903
C      4.977861   -0.220581    0.844875
C      6.332789    0.297992    0.504508
C    -11.921056    3.979681   -2.076685
C    -10.146595    2.226568    2.010062
C     -5.498299   -3.897535   -0.903189
C      0.254565   -1.465856    0.380673
C      2.368483   -0.904928    1.325983
C      6.532979   -1.831536   -0.835619
C     -1.796388   -0.499971    1.365392
C     10.839594    1.117901   -2.153854
C    -12.604281    2.684470   -1.791718
C     -9.815147    0.953737    1.240253
C     -6.398648   -3.917392   -2.101420
C     -7.240079   -2.665669   -2.232281
C    -11.853318    1.466927   -2.222595
C     -6.223746   -1.514361   -2.158626
C     -4.910695    2.642732    1.202967
C     -5.721978    1.589962    0.423149
C     -4.469301    2.205144    2.549486
C     -9.159555    1.361823   -0.055361
C     -5.143296    0.203672    0.567730
C      8.562108   -0.515997   -0.194900
C      8.675843    0.656783   -1.088981
C     -5.368708    2.692217    3.615000
C    -10.387184    1.670739   -2.012402
C     -5.514459   -1.590270   -0.853441
C     -7.963237    2.229541    0.284190
C     -3.905600    0.349495    1.414753
C      7.810807    1.821061   -0.696313
C     -1.232447   -1.481869    0.411176
C      0.982756   -1.435502    1.679825
C      3.128500   -1.761669    0.403048
C      4.229626   -0.920159   -0.237667
C      7.144549   -0.922575    0.151927
O     -5.420038   -6.289974   -1.034092
O      8.025095   -3.575840    3.315866
O    -12.492000    4.675393   -3.156449
O    -10.564736    1.841891    3.280022
O      7.283505   -1.639009   -2.033966
O     10.397204    0.705195   -3.231251
O    -12.893576    2.549401   -0.429936
O     -9.014347    0.173160    2.044035
O     -5.643881   -3.984000   -3.295855
O     -7.865106   -2.640683   -3.474461
O    -12.104990    1.221857   -3.587974
O     -6.926159   -0.336034   -2.304775
O     -3.923737    3.218434    0.408901
O      9.254367   -1.590622   -0.738950
O     -5.867737    1.888824    4.429681
O     -5.684410    4.032732    3.744678
O    -10.016908    2.716656   -2.896072
O     -8.425087    3.420927    0.921426
O      8.052389   -2.837430    1.187307
O     -4.763090   -2.762437   -0.724282
O     -3.147762   -0.773223    1.601992
O     10.023122    1.119686   -1.039949
O     -6.982535    1.634799    1.011670
O     -4.350310    0.820613    2.685727
O    -10.119717    2.148767   -0.740322
O     -4.831931   -0.434110   -0.601781
H      8.777736   -5.352167    0.773999
H      9.017073   -5.828963    2.460317
H     10.247366   -4.796397    1.621107
H      7.443605    3.228602    0.839115
H      8.624011    1.933393    1.335604
H      9.097073    3.295192    0.200254
H      7.131009    3.628872   -1.738590
H      7.506570    2.153130   -2.765280
H      8.853065    3.117535   -2.122228
H     -2.360550   -1.733445   -1.449280
H     -0.771146   -0.850323   -1.626654
H     -2.182165   -0.028272   -0.948829
H     -2.802487   -2.730299    1.196783
H     -2.103424   -3.312156   -0.331666
H     -1.175314   -3.552426    1.149850
H      1.105706   -3.634000    1.872765
H      0.082753   -2.834376    3.063056
H      1.823910   -2.640522    3.214983
H      3.261358   -3.882710    0.911623
H      3.967270   -2.816249    2.156250
H      4.817583   -3.116272    0.643098
H      3.958596    0.204209   -2.118636
H      2.497131    0.104024   -1.157373
H      3.774085    1.201838   -0.652770
H     17.604852    3.930643    0.004192
H     16.958838    3.087511   -2.206930
H     15.942684    3.889471    1.818418
H     14.710315    2.213850   -2.649763
H     13.664029    3.008121    1.382879
H     11.997910    2.056216    0.041657
H      5.143241    0.483251    2.782326
H      3.346831   -1.318903    3.264317
H      2.728683    0.382746    3.042560
H     12.881487    1.621271   -2.843600
H      0.662579   -3.559868   -0.099739
H      0.346162   -2.507978   -1.467881
H     -1.506842    0.263719    3.323664
H     -1.430956   -1.513319    3.225630
H      0.596288    0.628779    2.341232
H      0.792910   -0.615408    3.626609
H      2.720013   -3.392211   -0.970118
H      2.472257   -1.812708   -1.683556
H      5.844344    2.267558   -0.075426
H      5.979234    1.179091   -1.482371
H      4.656371   -2.705219   -1.285497
H      5.005599   -1.288488   -2.230158
H     -3.853035   -5.159859   -1.627234
H     -4.195975   -5.243276    0.184830
H    -10.103178    4.730094   -2.922012
H     -9.936955    3.978405   -1.289314
H     -8.070354    2.429614    2.644344
H     -9.101716    3.961645    2.773550
H      7.919635   -1.012597    2.167323
H      6.378471   -1.953997    1.949346
H      6.825853    0.698119    1.442603
H    -12.061292    4.678632   -1.195147
H    -10.896709    2.773368    1.440519
H     -6.179367   -3.991258   -0.007834
H      0.512029   -0.481704   -0.126640
H      2.131640    0.085129    0.819939
H      6.794931   -2.906911   -0.595633
H     -1.663275    0.563686    1.023731
H    -13.603492    2.675746   -2.305471
H    -10.768218    0.409176    1.075532
H     -7.066867   -4.799402   -2.122511
H     -7.944777   -2.556565   -1.407352
H    -12.259646    0.587079   -1.678866
H     -5.532808   -1.572213   -3.031154
H     -5.645232    3.491921    1.374853
H     -5.678902    1.948891   -0.603204
H     -3.455232    2.679884    2.788429
H     -8.921594    0.553089   -0.733941
H     -5.880884   -0.429735    1.130954
H      9.109863   -0.251182    0.758505
H      8.490844    0.346331   -2.136601
H     -9.803209    0.761128   -2.262958
H     -6.284627   -1.697619   -0.036224
H     -7.534014    2.579626   -0.678227
H     -3.217527    1.152300    1.076869
H     -5.096574   -7.021601   -0.456321
H    -12.245065    5.630715   -3.040620
H    -11.190532    1.092850    3.195872
H      7.181071   -2.449978   -2.624131
H    -13.460459    3.313332   -0.137406
H     -8.552896   -0.551393    1.534012
H     -5.004704   -4.739138   -3.277799
H     -8.646908   -3.230931   -3.486029
H    -12.346781    2.072456   -4.032306
H     -7.800000   -0.469614   -2.760543
H     -3.291263    3.664782    1.039029
H     10.036531   -1.277504   -1.235581
H     -6.650214    4.325574    3.954504
