181

C     11.520224   -3.935675    3.886019
C      8.050373   -4.552406    1.626459
C      8.618134   -4.151092   -0.679413
C     -1.395633    1.244827    1.129811
C     -0.835611    1.665344   -1.199071
C      0.359497   -0.950124    2.163590
C      3.638150    0.842002    2.352893
C      4.630779   -0.825343   -0.939404
C     13.293174    4.418190   -4.765768
C     12.213292    3.520061   -4.900077
C     13.793425    4.509903   -3.489692
C     11.747082    2.823766   -3.800578
C     13.341077    3.831149   -2.415582
C     11.794354    2.189091   -1.405977
C      4.417351   -1.963210    2.154725
C      2.965544   -1.717607    2.249060
C     10.841069    1.277507   -1.408918
C      1.449760    1.645308    0.430200
C     -0.819367   -1.930380   -0.256544
C      0.623615   -1.984714   -0.000687
C      2.935805    1.376884    0.116085
C      6.951263   -2.764040    0.392957
C      5.799771    0.875803    0.368891
C     -6.440847    4.508430    1.341611
C    -10.365444   -2.960827   -0.241103
C     -8.018227    2.060507   -4.066205
C      7.590968    0.177230    2.623504
C     11.086866   -3.466051    2.537487
C     12.272730    2.940363   -2.537653
C      5.263029   -1.314897    1.376077
C      6.674648   -1.731247    1.451264
C    -11.751539   -2.966018    0.320823
C     -8.948805    2.784180   -3.195328
C     -5.529470    3.465766    1.978198
C      0.743362    0.402148    0.071043
C      2.564645   -0.951282    0.987326
C      7.211073    0.418488    0.273658
C     -1.453096   -0.599645   -0.526204
C     10.452331    0.591761   -0.173112
C    -12.492887   -1.675733    0.186492
C     -9.766621    2.077023   -2.176672
C     -6.347185    2.869144    3.120418
C     -7.419878    1.979673    2.574028
C    -11.536871   -0.492165    0.357705
C     -7.083262    1.352339    1.293491
C     -5.041996   -0.799296   -3.112526
C     -5.816876   -0.183506   -1.980487
C     -4.247962   -1.991293   -2.771776
C     -9.312766    0.652196   -1.946851
C     -5.105293   -0.348027   -0.684752
C      9.355060   -2.490413    1.046125
C      9.045648   -1.044004    1.052013
C     -5.020544   -3.223234   -3.128787
C    -10.377325   -0.756525   -0.546050
C     -5.479593    1.292641    1.171918
C     -7.889725    0.591974   -2.314412
C     -3.685004   -0.736660   -1.025796
C      8.287068   -3.441931    0.620311
C     -0.751702    0.608036   -0.072597
C      1.112416   -0.787218    0.859286
C      3.445544    0.259491    0.970022
C      4.785541   -0.227529    0.475021
C      7.628460   -0.614416    1.301611
O     -5.736889    5.166978    0.359995
O      7.939727   -0.580055    3.710630
O     11.843889   -3.502800    1.523792
O    -12.473723   -3.954444   -0.377119
O     -9.828134    3.510217   -4.059873
O      7.586750    0.066398   -1.022935
O     11.015917    0.856568    0.927957
O    -13.439337   -1.591737    1.214158
O    -11.109146    2.085842   -2.586384
O     -6.985280    3.936193    3.747412
O     -8.632094    2.697201    2.404744
O    -12.178733    0.679298   -0.067270
O     -7.441236   -0.033078    1.298218
O     -4.263069    0.118532   -3.825989
O     -5.466495   -3.404068   -4.285981
O     -5.290753   -4.237831   -2.199322
O     -9.644243   -1.807838    0.049169
O     -7.916169    0.717601   -3.799643
O      9.828369   -2.958418    2.311268
O     -5.039568    2.548163    1.142994
O     -2.771963   -0.761596   -0.011768
O      9.474357   -0.361713   -0.115394
O     -7.156511   -0.540806   -2.057333
O     -3.870787   -2.137060   -1.461607
O     -9.527195    0.320116   -0.632343
O     -5.291491    0.484625    0.235739
H     11.327366   -3.152071    4.662029
H     11.069888   -4.888548    4.185313
H     12.618276   -4.057799    3.873654
H      8.983740   -4.861867    2.140312
H      7.251674   -4.258845    2.365468
H      7.658480   -5.484476    1.152691
H      8.452348   -3.536088   -1.572062
H      9.626661   -4.635139   -0.641623
H      7.915459   -5.033992   -0.766819
H     -0.665948    1.463994    1.948929
H     -1.778958    2.275967    0.857538
H     -2.310508    0.722417    1.476878
H     -0.792033    2.687579   -0.798983
H     -0.019888    1.540358   -1.920510
H     -1.786585    1.549711   -1.748612
H      0.631846   -0.254236    2.949632
H     -0.737885   -0.941538    2.030278
H      0.556784   -1.975897    2.586991
H      4.021550    1.902213    2.248122
H      4.367576    0.316957    2.967753
H      2.653424    0.988766    2.872103
H      4.640287   -1.937641   -0.906015
H      3.660852   -0.564731   -1.397466
H      5.397141   -0.417921   -1.626912
H     13.645605    4.954260   -5.628842
H     11.809941    3.428037   -5.893998
H     14.639359    5.211438   -3.382337
H     10.895104    2.137812   -3.970523
H     13.756455    3.925901   -1.421683
H     12.259282    2.390699   -0.423298
H      4.807424   -2.789361    2.813012
H      2.841032   -1.053579    3.146221
H      2.428485   -2.673476    2.341114
H     10.367037    1.071451   -2.332101
H      1.400557    1.970144    1.471319
H      1.167911    2.496126   -0.224939
H     -1.428903   -2.491283    0.527681
H     -1.002447   -2.574566   -1.169697
H      0.861617   -2.880007    0.594000
H      1.202078   -2.015991   -0.940860
H      3.061291    1.281850   -0.954477
H      3.482222    2.309859    0.420436
H      6.952667   -2.344272   -0.631637
H      6.135003   -3.510671    0.434016
H      5.567818    1.413387   -0.580334
H      5.714812    1.637689    1.162356
H     -7.393094    4.107456    1.005125
H     -6.658293    5.260029    2.163509
H    -10.433964   -3.042713   -1.361825
H     -9.814030   -3.824592    0.192654
H     -8.289985    2.199022   -5.151307
H     -6.982521    2.538744   -4.024149
H      8.385364    0.991081    2.562103
H      6.651322    0.748064    2.714425
H      6.877277   -2.215230    2.429242
H    -11.683739   -3.216963    1.402374
H     -8.343049    3.608924   -2.685175
H     -4.707270    4.045154    2.460090
H      1.067106    0.167167   -0.997139
H      2.926366   -1.630951    0.154862
H      7.855486    1.316138    0.510921
H     -1.545661   -0.517261   -1.660481
H    -12.982078   -1.522278   -0.800211
H     -9.685540    2.656829   -1.201100
H     -5.714484    2.376751    3.878957
H     -7.694361    1.168852    3.294838
H    -11.187682   -0.352859    1.376731
H     -7.404388    1.856027    0.401090
H     -5.839730   -1.143084   -3.882110
H     -5.730026    0.954294   -2.188334
H     -3.345279   -2.014534   -3.447433
H     -9.921701   -0.039117   -2.626677
H     -5.484958   -1.385531   -0.252452
H     10.222525   -2.646491    0.370164
H      9.678936   -0.588386    1.864924
H    -10.681633   -1.069973   -1.564146
H     -5.327944    0.809697    2.209999
H     -7.290199    1.483187   -2.106481
H     -3.271114   -0.328994   -1.924368
H     -6.424544    5.453054   -0.324241
H      7.278552   -0.389536    4.440825
H    -13.399906   -3.650014   -0.561987
H    -10.593270    3.756650   -3.474939
H      7.510004    0.831373   -1.614451
H    -13.960290   -0.750838    1.047408
H    -11.233586    1.374801   -3.248058
H     -6.302089    4.415681    4.275154
H     -9.204780    2.562114    3.175589
H    -11.610801    1.452892    0.230986
H     -8.289612   -0.048923    1.812705
H     -4.735644    0.989103   -3.901021
H     -5.787380   -5.078441   -2.511234
