61

C     -3.967397   -0.888160    1.632392
C      1.250857    3.329009   -0.938429
C      6.367910   -0.383421    1.535180
C     -0.939776    4.543594    1.836605
C     -2.497117   -1.038715    1.467733
C     -2.493249   -3.193786   -0.332909
C      3.756431   -1.020907    0.538323
C      2.487232   -1.285108    0.049188
C     -2.761160   -1.788733   -0.805400
C      0.284965   -1.066648   -2.267503
C     -1.071981   -3.479027   -0.005295
C      0.040226   -2.455369   -1.801713
C      3.357482    1.266966    0.145190
C     -2.414915    0.601791   -0.376451
C      4.200137    0.281149    0.587168
C      1.657568   -0.275542   -0.390013
C      2.065422    1.010416   -0.354009
C     -0.575637   -1.084417   -0.029422
C     -0.083350    1.110190   -1.210626
C     -1.040180    2.434959    0.573138
C     -2.014641   -0.754897    0.035377
C      0.270339   -0.276548   -0.953547
C     -1.357674    1.613636   -0.619840
N      1.070066    1.893290   -0.846019
N     -0.231553   -2.402083   -0.404578
O     -0.536837    1.863684    1.566587
O     -1.885096    2.542906   -1.557317
O      5.484383    0.591891    1.077678
O     -1.251748    3.796709    0.693169
H     -4.504099   -0.345995    0.862411
H     -4.495387   -1.882005    1.739951
H     -4.142829   -0.400369    2.637440
H      1.414981    3.817470    0.022614
H      0.385688    3.765563   -1.515791
H      2.147811    3.588484   -1.574081
H      7.159708    0.131592    2.132160
H      6.811483   -0.891381    0.651848
H      5.792457   -1.092812    2.180390
H      0.127512    4.490555    2.110554
H     -1.156835    5.610409    1.605454
H     -1.624838    4.246555    2.646610
H     -1.935403   -0.398576    2.205798
H     -2.235963   -2.074283    1.766076
H     -3.121873   -3.450674    0.556263
H     -2.909147   -3.861162   -1.146864
H      4.364173   -1.826414    0.866652
H      2.101157   -2.301377   -0.003513
H     -3.855500   -1.601904   -0.600192
H     -2.635897   -1.634839   -1.878496
H      1.314031   -0.926746   -2.683250
H     -0.496441   -0.697411   -2.962512
H     -0.768914   -4.352466   -0.666025
H     -0.881134   -3.877970    1.013227
H      0.972550   -3.060331   -1.962675
H     -0.733094   -2.996494   -2.388105
H      3.727790    2.296841    0.191722
H     -3.101544    0.544921   -1.275470
H     -3.085014    1.037083    0.413279
H     -0.148515   -0.929347    1.009899
H     -0.113388    1.239964   -2.343089
H     -1.544232    2.346291   -2.456947
