87

C      7.558845    0.895138    1.451932
C      8.739713    1.495513    1.074680
C      8.317117   -1.167776    0.629383
C      2.933380    1.812447   -0.415325
C      0.368091    1.393848   -1.362811
C     -7.685603    1.164886    2.117207
C      4.071160   -1.687606    0.247064
C      4.304012   -0.514391    2.962611
C     -4.291994   -0.360951    1.296759
C     11.490823   -0.024875   -0.791807
C      1.828598    4.494697   -2.553385
C      7.321346   -0.466295    1.233725
C      2.183000    0.774807    0.068270
C      4.958571   -0.581862    0.715534
C      4.039573    0.192291    1.643805
C      9.737543    0.753482    0.459811
C      0.885040    0.555023   -0.404678
C      9.505035   -0.586181    0.244584
C      2.421584    2.671242   -1.387438
C      1.126708    2.437990   -1.847433
C     -7.677772    1.198546    0.603070
C     -3.275533   -0.870061    0.354183
C     -8.080132   -0.159430    0.107020
C     -3.530136   -2.311167   -0.073854
C     -7.648313   -0.408172   -1.319022
C     -2.602948   -2.547884   -1.244372
C     -6.274069    0.115524   -1.597652
C     -1.175680   -2.321334   -0.720605
C      6.029532   -1.061128    1.661549
C      2.706416   -0.128245    1.080709
C     -5.645117    0.590335   -0.340136
C     -1.111739   -0.896009   -0.201241
O     -7.442517    2.471423    2.544616
O     -9.493629   -0.186853    0.101584
O     -4.858025   -2.457427   -0.375487
O     -7.643624   -1.784737   -1.533690
O     -2.748965   -3.793041   -1.805000
O     -6.433492    1.243836   -2.431477
O     -0.253748   -2.540918   -1.717065
O      5.689012   -0.639759    2.930212
O      2.768377   -1.406699    0.541695
O     -5.535788   -0.298921    0.691888
O     11.011860    1.062795   -0.027552
O     10.660108   -1.089018   -0.382804
O      2.940924    3.777858   -2.044773
O      0.900809    3.437743   -2.792235
O      0.170222   -0.483239    0.097172
O     -6.469945    1.634752    0.136190
O     -1.966693   -0.842328    0.930642
H      6.809362    1.528535    1.931889
H      8.950577    2.542924    1.230340
H      8.186109   -2.221591    0.437340
H      3.920563    1.981724   -0.061428
H     -0.618319    1.283754   -1.769599
H     -6.845998    0.516831    2.442229
H     -8.643637    0.773564    2.515532
H      4.207875   -1.928889   -0.832023
H      4.336111   -2.637512    0.798282
H      3.769004   -1.457486    3.065449
H      4.026495    0.184783    3.776710
H     -3.977112    0.679148    1.588134
H     -4.327599   -0.952869    2.239012
H     11.403504    0.163997   -1.891619
H     12.563100   -0.206526   -0.576313
H      2.052812    5.065946   -3.461987
H      1.400606    5.117805   -1.737435
H      5.355702    0.059280   -0.088665
H      4.288698    1.242347    1.760916
H     -8.451392    1.930748    0.277586
H     -3.217376   -0.257481   -0.545119
H     -7.766412   -0.991733    0.768647
H     -3.285753   -2.986215    0.782518
H     -8.394618    0.004626   -2.041517
H     -2.828999   -1.745497   -1.990816
H     -5.682770   -0.600408   -2.198029
H     -1.065758   -2.991327    0.157354
H      6.139851   -2.161210    1.581509
H      1.972393   -0.168826    1.923112
H     -4.665939    1.106819   -0.527775
H     -1.592689   -0.248362   -0.959966
H     -8.273697    2.983892    2.305106
H     -9.765075    0.354719   -0.683014
H     -5.014357   -2.973769   -1.224710
H     -8.598970   -2.078526   -1.437818
H     -2.782152   -3.698394   -2.805740
H     -7.038103    1.847699   -1.924323
H      0.632030   -2.773022   -1.379820
