49

C      4.883158    1.422805    0.395167
C     -0.553166   -1.355783    2.521747
C     -0.932107   -3.264109    1.048266
C      5.567623    0.101694    0.048651
C      5.150673   -0.284200   -1.334937
C      3.679540   -0.436827   -1.432292
C      3.188798   -1.510300   -0.501591
C     -5.268035    0.833861    0.720573
C     -5.214844    2.926957   -0.473656
C     -4.599662   -0.282829    1.159118
C     -4.456010    3.834095   -1.201010
C     -1.152505    0.323734   -0.165572
C     -4.588610    1.783474   -0.008181
C     -2.565880    0.466152    0.157025
C     -3.241176   -0.469491    0.876786
C     -0.585582   -1.052416    0.035501
C      1.709587   -1.584901   -0.695531
C     -3.115895    3.581672   -1.441045
C     -3.241734    1.585362   -0.280706
C     -1.200724   -1.781618    1.198942
O      1.238126   -2.190264   -1.683112
O     -2.448319    4.417388   -2.102331
O      0.821743   -1.000721    0.189097
O     -2.588451    2.491076   -0.977138
O     -2.574036   -1.589700    1.317583
H      3.852116    1.161500    0.710353
H      4.889929    2.068806   -0.497256
H      5.364524    1.889770    1.278250
H      0.444159   -0.920649    2.358081
H     -0.422255   -2.220975    3.204461
H     -1.223469   -0.637059    3.056710
H      0.182964   -3.400115    1.009163
H     -1.330286   -3.850843    1.890343
H     -1.313012   -3.612287    0.070672
H      5.292518   -0.684038    0.770447
H      6.694487    0.260685    0.073899
H      5.594795   -1.300668   -1.558761
H      5.513378    0.457854   -2.081298
H      3.125503    0.501092   -1.151808
H      3.355241   -0.652038   -2.482478
H      3.454660   -1.358671    0.544140
H      3.619819   -2.495503   -0.828715
H     -6.321088    0.979158    0.939205
H     -6.245630    3.079607   -0.266480
H     -5.100222   -1.034829    1.726200
H     -4.945005    4.721157   -1.561228
H     -1.017570    0.653340   -1.237407
H     -0.572820    1.059661    0.433598
H     -0.805251   -1.630070   -0.889661
