78

C      5.036343    1.141836   -0.912335
C     -0.621040   -4.963888   -0.591717
C     -6.652884   -0.887875   -0.735793
C     -1.138829    5.748009    1.876248
C     -2.128151   -1.027528    2.218122
C     -0.509938    2.322891   -2.024081
C     -1.107310    3.431319    0.120668
C     -1.842351   -2.450627   -0.852126
C     -3.744273   -1.080306   -0.921476
C      1.639277    1.323428   -2.617538
C      0.638576   -0.065246   -0.254721
C      4.785632    1.046986    0.579503
C     -1.111403    2.321372   -0.676366
C     -2.353862   -1.175876   -1.001178
C      0.183180    1.073362   -2.436307
C     -0.142510   -0.106864   -1.532032
C     -2.633191   -3.557436   -0.638959
C     -4.543396   -2.176646   -0.710352
C     -1.684449    3.403597    1.371206
C     -1.625215    0.041843   -1.233424
C     -1.704889    1.124259   -0.236607
C      5.566590   -0.113486    1.149214
C     -3.995379   -3.438431   -0.565029
C     -2.260233    2.223051    1.784169
C      4.611152   -0.941629    1.981817
C      3.474729   -1.330710    1.051309
C     -2.274928    1.078804    0.988055
C      2.726498   -0.046589    0.738409
O      2.328816    0.160089   -3.019939
O      6.576296    0.316181    2.009459
O     -4.809064   -4.560659   -0.347617
O     -2.851236    2.158441    3.037218
O      5.227269   -2.039719    2.561432
O      3.997483   -1.959007   -0.049503
O     -2.024732   -4.795720   -0.500741
O     -5.927081   -2.113320   -0.627941
O     -1.703472    4.502717    2.210777
O     -2.861239   -0.090457    1.442472
O      2.031370   -0.091709   -0.453936
O      3.468550    1.092059    0.921908
H      4.579010    0.322590   -1.467559
H      6.143486    1.143399   -1.099001
H      4.668417    2.100872   -1.332595
H     -0.351378   -5.999429   -0.386532
H     -0.160201   -4.312679    0.169616
H     -0.339003   -4.632664   -1.622769
H     -6.506250   -0.523528   -1.772991
H     -7.746478   -1.070442   -0.632065
H     -6.373960   -0.150328    0.016154
H     -1.580669    6.546614    2.503193
H     -1.360032    5.948361    0.807961
H     -0.037557    5.658773    1.995547
H     -2.449239   -0.965297    3.293909
H     -1.063014   -0.820918    2.150914
H     -2.354038   -2.066399    1.920284
H      0.190825    3.200789   -2.132183
H     -1.335794    2.584969   -2.753301
H     -0.647877    4.349476   -0.222619
H     -0.768265   -2.571822   -0.916491
H     -4.267966   -0.128408   -1.023121
H      2.143074    1.827413   -1.774556
H      1.734213    2.033435   -3.478735
H      0.432380   -0.994457    0.326916
H      0.356173    0.756604    0.436895
H      5.255575    1.984337    1.013325
H     -0.208399    0.797657   -3.466387
H      0.106946   -1.021878   -2.093144
H     -2.067077    0.506504   -2.181250
H      5.969512   -0.776037    0.352460
H      4.192639   -0.250134    2.750572
H      2.846065   -2.061865    1.615291
H      1.928105   -0.004299    1.546245
H      2.597034    0.192201   -3.960905
H      6.807562    1.237515    1.697375
H     -5.827554   -4.426341   -0.305622
H     -3.288230    1.359007    3.424087
H      4.670374   -2.340190    3.346791
H      4.070888   -2.929919    0.152022
