87

C      9.867265    3.426272    0.353625
C    -12.558880    0.778958    0.831288
C     10.294227    3.266837   -1.066157
C      9.867358    1.987463   -1.676606
C      8.435442    1.673318   -1.780041
C      7.623947    1.460787   -0.567189
C      8.062138    0.274160    0.264669
C      7.175639    0.163463    1.468782
C      5.718594   -0.031165    1.151817
C      5.453902   -1.267710    0.351217
C      3.944144   -1.415934    0.072250
C      3.770098   -2.639771   -0.737659
C      2.438609   -3.049004   -1.190728
C      1.430178   -3.442448   -0.202489
C      0.969640   -2.503988    0.839030
C      0.412450   -1.211735    0.392025
C     -0.759059   -1.274971   -0.496080
C     -8.275000    3.452164    0.660883
C     -7.517977    1.098000    0.666974
C     -9.339261    4.343359    0.679209
C     -6.242291    1.386720    0.602871
C     -9.883657    1.687530    0.739894
C     -4.941368   -2.172157    0.606240
C     -8.545464    2.106415    0.691288
C    -10.652602    3.937596    0.726053
C     -1.991430   -1.905372    0.046645
C     -4.272993   -2.500066   -0.680088
C    -10.928067    2.569096    0.757183
C     -5.234202    0.271651    0.581400
C     -3.050922   -1.810187   -1.065485
O    -11.707171    4.831534    0.743381
O     -1.804948   -3.254315    0.340676
O     -5.208402   -2.485601   -1.743960
O     -4.049252    0.574467    0.520857
O     -2.533311   -2.521826   -2.197906
O    -12.262647    2.149120    0.804443
O     -5.633657   -1.001870    0.626902
H      8.978753    4.107617    0.402879
H     10.719485    3.904914    0.940639
H      9.718869    2.457653    0.838469
H    -13.610242    0.604797    1.164032
H    -12.417365    0.378165   -0.190794
H    -11.927608    0.182962    1.510471
H     11.432202    3.290862   -1.147217
H      9.887454    4.096539   -1.710182
H     10.270076    1.983802   -2.747327
H     10.466117    1.178007   -1.173138
H      7.955259    2.556663   -2.325085
H      8.241897    0.834121   -2.526509
H      7.475983    2.357871    0.053913
H      6.567353    1.226618   -0.937888
H      7.839016   -0.637830   -0.370678
H      9.121607    0.215016    0.474860
H      7.497460   -0.719327    2.088740
H      7.228666    1.107186    2.092778
H      5.188730   -0.047434    2.142645
H      5.334987    0.892152    0.648384
H      5.763019   -2.141314    0.956533
H      5.914224   -1.193894   -0.632085
H      3.443771   -1.328839    1.017481
H      3.618092   -0.535728   -0.565266
H      4.250681   -3.494871   -0.151318
H      4.487011   -2.573357   -1.631323
H      2.017107   -2.336537   -1.974971
H      2.603855   -3.982028   -1.845206
H      1.897502   -4.323560    0.380964
H      0.559484   -3.968708   -0.692793
H      0.101538   -3.045450    1.364861
H      1.692281   -2.436248    1.702823
H      1.180224   -0.560506   -0.112090
H      0.094386   -0.637236    1.314388
H     -0.422739   -1.817607   -1.437036
H     -1.016146   -0.244460   -0.923074
H     -7.256386    3.795119    0.623726
H     -7.798269    0.050956    0.702512
H     -9.081695    5.408312    0.654523
H     -5.902313    2.379493    0.564930
H    -10.094366    0.632286    0.762794
H     -4.172848   -2.188481    1.451385
H     -5.595872   -3.066480    0.872175
H     -2.323341   -1.430057    0.978767
H     -3.984147   -3.650314   -0.634083
H     -3.082741   -0.778529   -1.406257
H    -11.517535    5.823159    0.722070
H     -2.229360   -3.547561    1.181797
H     -4.710418   -2.263869   -2.594400
H     -2.474764   -3.473769   -1.996032
