55

C      6.440546    0.793047   -1.773866
C     -0.761177    1.564349    1.797575
C     -0.059589    2.770765   -0.204197
C      5.193029    0.196736   -1.151302
C      5.630317   -0.926969   -0.271605
C      4.505705   -1.644240    0.433694
C      3.722597   -0.726297    1.325122
C      2.600082   -1.420702    2.041891
C      1.583221   -2.039576    1.127235
C     -5.814696    1.414357    0.583836
C     -6.981964   -0.565931   -0.036548
C     -4.671293    2.182624    0.675383
C     -6.966348   -1.834145   -0.599019
C     -2.192282   -0.153097   -0.892335
C     -5.803903    0.150761    0.024185
C     -3.449940    0.377438   -0.385232
C     -3.511828    1.631733    0.181274
C     -0.946359    0.442225   -0.367250
C      0.924025   -1.059338    0.241237
C     -5.744558   -2.280917   -1.060147
C     -4.601089   -0.363263   -0.462595
C     -1.062368    1.746041    0.324281
O      1.523570   -0.707129   -0.804955
O     -5.752509   -3.448716   -1.572280
O     -0.317087   -0.500557    0.489015
O     -4.646126   -1.562405   -0.980946
O     -2.334111    2.344060    0.240258
H      6.240424    1.175614   -2.794277
H      7.265588    0.058185   -1.867685
H      6.793455    1.675288   -1.188344
H     -1.415837    0.733192    2.153731
H      0.311471    1.303399    1.908941
H     -1.045602    2.476750    2.326259
H      0.706066    3.028890    0.555398
H      0.434045    2.419074   -1.134070
H     -0.550747    3.732614   -0.472198
H      4.666312    0.975359   -0.584126
H      4.585812   -0.227745   -1.991624
H      6.402393   -0.559820    0.437391
H      6.167325   -1.662989   -0.924420
H      4.975579   -2.472685    1.011706
H      3.858301   -2.078774   -0.359261
H      3.377533    0.147794    0.738834
H      4.418274   -0.345679    2.102141
H      2.166986   -0.719777    2.785258
H      3.055276   -2.252637    2.635194
H      0.840246   -2.557187    1.778584
H      2.099345   -2.845145    0.560650
H     -6.756515    1.804530    0.959028
H     -7.930587   -0.178381    0.338912
H     -4.665481    3.185008    1.117414
H     -7.858689   -2.453099   -0.680269
H     -2.203172   -1.268527   -0.724804
H     -2.225258   -0.059869   -2.018246
H     -0.218410    0.585765   -1.220536
