78

C      5.463585   -2.722336   -1.991375
C      0.851135    2.114002    3.338170
C     -0.145836    3.121060   -3.767649
C     -6.753597   -0.047651    3.443367
C     -3.868637    0.575361   -2.670336
C     -1.990058   -1.709923    2.090250
C     -4.213511   -0.568520    2.145289
C     -0.109329    1.320819    0.861177
C     -0.475014    1.582461   -1.469190
C     -0.776294   -3.767228    1.349896
C      0.753244   -1.600694    0.306789
C      4.896108   -1.701141   -1.039914
C     -3.026828   -0.790437    1.504024
C     -0.637948    0.832552   -0.321423
C     -1.480711   -2.502148    0.924155
C     -0.698306   -1.680406   -0.070031
C      0.574723    2.523844    0.951746
C      0.193100    2.770988   -1.406184
C     -5.172768    0.270157    1.569574
C     -1.402875   -0.437428   -0.405719
C     -2.712609   -0.224924    0.299938
C      5.319005   -0.286213   -1.371924
C      0.717641    3.242692   -0.202059
C     -4.861460    0.837501    0.362730
C      4.954091    0.491720   -0.095879
C      3.434108    0.434172   -0.055428
C     -3.641935    0.603045   -0.285169
C      2.883855   -0.908671   -0.208072
O     -0.302813   -4.514243    0.290354
O      6.654245   -0.153677   -1.675377
O      1.387491    4.449533   -0.179934
O     -5.804901    1.681375   -0.235844
O      5.458430    1.763415   -0.086641
O      3.051593    1.265580   -1.134286
O      1.083534    2.948359    2.207016
O      0.379865    3.560138   -2.523282
O     -6.380835    0.500249    2.216199
O     -3.454035    1.239005   -1.504245
O      1.543510   -0.877758   -0.576680
O      3.517989   -1.732107   -1.120373
H      6.364545   -2.369551   -2.533125
H      5.783875   -3.614254   -1.403640
H      4.689926   -3.104802   -2.699628
H      1.297886    2.559642    4.224802
H      1.277898    1.111430    3.124394
H     -0.246726    2.047495    3.457785
H      0.419935    2.266119   -4.161731
H     -0.111478    3.931130   -4.517385
H     -1.218436    2.816896   -3.639869
H     -7.161254   -1.072675    3.343747
H     -7.590110    0.570451    3.837387
H     -5.910863   -0.063589    4.147353
H     -4.428375   -0.370080   -2.421338
H     -4.539051    1.238012   -3.261542
H     -3.030348    0.285092   -3.332735
H     -2.551125   -2.408953    2.761364
H     -1.212789   -1.181585    2.646332
H     -4.451317   -1.021880    3.098572
H     -0.231541    0.763028    1.779162
H     -0.877277    1.223583   -2.436381
H     -1.539615   -4.350761    1.939069
H      0.022661   -3.467964    2.044578
H      0.834650   -1.256167    1.351329
H      1.099025   -2.679915    0.345064
H      5.213283   -1.961082   -0.009340
H     -2.406942   -2.829695    0.359223
H     -0.698505   -2.338595   -1.013864
H     -1.740865   -0.515219   -1.499927
H      4.632573    0.135748   -2.151507
H      5.316992   -0.057787    0.795086
H      3.122850    0.964276    0.856262
H      2.931008   -1.475187    0.752456
H      0.496920   -5.033228    0.583335
H      6.770511   -0.282113   -2.666479
H      1.800718    4.798804    0.686291
H     -5.641765    2.135630   -1.124388
H      5.835132    1.955844   -0.984635
H      2.471044    0.749378   -1.739741
