68

C     -5.093644    3.358308   -0.688114
C     -0.218568    2.618047   -0.265593
C     -7.778568    1.378542    0.266931
C      8.603843   -1.359269   -1.866873
C      7.792122   -2.383732   -1.417542
C      7.990168   -0.165617   -2.220724
C     -3.247513   -2.298391   -1.320903
C     -3.327929   -3.402669   -0.533546
C      3.600416    1.310275    1.042699
C      6.405293   -2.206662   -1.329071
C      6.621251    0.005248   -2.132183
C      2.657423    0.485252    1.924908
C     -3.208386   -1.071309   -0.744644
C     -3.369397   -3.270298    0.814136
C      4.540577    0.288777    0.443550
C      4.369395   -0.827295   -1.598370
C      2.445578   -0.634973   -0.311456
C     -3.937507    2.531150   -0.201754
C     -1.614935    2.150154    0.095636
C      5.813496   -1.017338   -1.684162
C      1.772715   -0.280677    0.981351
C     -3.249017   -0.909411    0.645059
C     -3.331698   -2.016079    1.439227
C     -4.234244    1.248261    0.394385
C     -1.817950    1.016269    0.722407
C     -3.151578    0.491382    1.125496
C     -5.446529    0.717074    0.307974
C     -0.653859    0.172874    1.027656
N     -2.725985    2.904281   -0.359022
N      3.865859   -0.785191   -0.229005
N     -3.431990   -1.936798    2.831006
O     -5.692451   -0.522562    0.896834
O     -0.728987   -0.933241    1.615831
O     -2.922829   -0.988038    3.614858
O     -4.079468   -2.868257    3.400897
O     -6.484963    1.349323   -0.349478
O      0.652205    0.531961    0.685452
H     -5.840768    3.541070    0.094805
H     -4.654228    4.378719   -0.898922
H     -5.483583    2.997677   -1.650479
H      0.403864    2.798527    0.612996
H      0.243713    1.992804   -1.038850
H     -0.338672    3.625933   -0.743990
H     -8.425203    1.933958   -0.447293
H     -8.084648    0.347362    0.443659
H     -7.730643    1.981274    1.195487
H      9.683619   -1.498160   -1.936209
H      8.219789   -3.352116   -1.121167
H      8.650908    0.624426   -2.570644
H     -3.215417   -2.386752   -2.408537
H     -3.358655   -4.395422   -1.002261
H      4.197464    1.961024    1.712765
H      3.029030    1.863231    0.289915
H      5.755017   -2.996316   -0.978528
H      6.166071    0.965344   -2.420770
H      3.233719   -0.205451    2.544946
H      2.072132    1.150129    2.564492
H     -3.142804   -0.201946   -1.378192
H     -3.434978   -4.129450    1.476321
H      5.261571    0.843158   -0.204621
H      5.070236   -0.183252    1.324132
H      4.042734    0.080023   -2.181737
H      3.879582   -1.689128   -2.129324
H      2.210487    0.105187   -1.102496
H      2.025587   -1.601732   -0.648666
H      1.420561   -1.191451    1.517323
H     -3.295472    0.609721    2.211795
H     -5.943359   -0.647761    1.850196
