37

C     -3.745093    0.099746   -0.168472
C     -2.377538    1.838581   -0.887103
C     -2.663007    1.376473    1.448376
C      4.997279   -0.283289   -0.461520
C      4.414996   -1.367599    0.158545
C     -0.105281    0.508802    0.320154
C      2.942951    0.859539   -0.512228
C      1.030853   -1.685916    1.079286
C      0.999823   -0.447389    0.523940
C      4.292110    0.834710   -0.805606
C      2.306164   -0.202267    0.109127
C      3.065405   -1.298718    0.431834
C     -1.456396   -0.139959    0.175033
C     -1.472574   -1.059108   -0.976527
Br     5.155316    2.284027   -1.649788
N      2.275616   -2.207965    1.026290
N     -2.524240    0.818073    0.107059
O     -2.265766   -0.743765   -1.933068
O     -0.736376   -2.206355   -1.120160
H     -4.112656    0.416247   -1.168279
H     -3.627164   -1.000417   -0.089238
H     -4.532447    0.458401    0.549787
H     -1.386561    2.221883   -1.070454
H     -2.971580    2.716516   -0.497901
H     -2.857547    1.501104   -1.818432
H     -2.475541    0.519799    2.156768
H     -1.918609    2.146118    1.640648
H     -3.711763    1.696497    1.574668
H      6.069201   -0.308252   -0.689179
H      5.014612   -2.219483    0.406300
H      0.109372    0.976128   -0.694524
H     -0.035192    1.293525    1.057653
H      2.384939    1.729995   -0.765151
H      0.183370   -2.181011    1.500695
H     -1.633923   -0.732833    1.095797
H      2.571120   -3.134158    1.371761
H     -1.203870   -3.077680   -1.426091
