67

C     -5.631722    0.640443   -0.917366
C      6.592090   -0.020441   -0.072973
C      0.650086    3.361735    3.730694
C      2.510763    1.880953   -0.087514
C      2.320853    0.438813    1.821928
C      0.416732   -2.145125    0.243496
C      2.340310   -0.723095   -1.757902
C      0.912923   -1.108701   -1.880431
C     -3.330532   -1.712397   -2.034665
C     -3.253461   -1.459784    0.403326
C     -4.470147    0.078564   -0.751990
C      5.224703   -0.595487    0.052887
C     -0.021902    2.856951    2.514825
C     -4.163993   -1.364155   -0.835297
C     -1.874551   -1.980665   -1.709092
C      2.835883   -0.501352   -0.356922
C     -0.442216    0.952675    0.981902
C     -1.308694   -0.786385   -1.011119
C      0.540016    0.388836    0.012492
C     -3.181869    0.735565   -0.443052
C     -1.566014   -0.007011    1.354249
C      1.967621    0.511821    0.385323
C      0.122529   -0.959530   -0.563887
C     -2.265827   -0.381571    0.076118
O      5.112705   -1.679823    0.659029
O     -0.767560    3.533341    1.766911
O     -1.260485   -2.092219   -2.981337
O     -2.715832    1.250193   -1.668446
O     -2.465693    0.655606    2.148378
O      4.136214    0.042706   -0.476478
O      0.138531    1.545992    2.109061
H     -6.496548    0.014002   -1.142903
H     -5.816723    1.713397   -0.847307
H      7.116693   -0.635753   -0.838078
H      7.110208   -0.216930    0.884979
H      6.575769    1.052189   -0.351096
H      0.149111    4.334167    3.984356
H      1.710917    3.603703    3.570266
H      0.488650    2.677848    4.598603
H      1.959910    2.706945    0.390133
H      2.271387    1.927979   -1.182773
H      3.593255    1.931458    0.014848
H      1.669212   -0.170579    2.469227
H      3.341917   -0.037041    1.947360
H      2.501378    1.460029    2.284316
H      0.858941   -2.028047    1.226453
H      1.099160   -2.889722   -0.278671
H     -0.497479   -2.790068    0.413982
H      2.513347    0.237680   -2.319775
H      3.035404   -1.453060   -2.228287
H      0.408773   -0.494621   -2.662804
H      0.890777   -2.199530   -2.114159
H     -3.735528   -2.588112   -2.570238
H     -3.348860   -0.857796   -2.744050
H     -3.845302   -1.154895    1.281165
H     -2.845758   -2.471138    0.508971
H     -5.029694   -2.020855   -0.712655
H     -1.717442   -2.934516   -1.213633
H      2.942044   -1.442668    0.214502
H     -1.039775    1.811499    0.531861
H     -1.273559    0.039195   -1.751331
H      0.439015    1.029246   -0.928202
H     -3.240431    1.596503    0.218564
H     -1.187112   -0.946783    1.797016
H     -1.377700   -3.000539   -3.345892
H     -2.928923    2.211899   -1.762425
H     -3.396493    0.628465    1.945531
