48

C      6.874559   -0.092671    0.060970
C     -5.139900   -1.316128    0.459622
C      5.434151   -0.355811   -0.392608
C      4.835230    0.974362   -0.734190
C      3.402400    0.892835   -1.207068
C      2.571715    0.286875   -0.122570
C      1.096133    0.180417   -0.548420
C     -3.453666    2.025203   -0.210023
C      0.370562   -0.426414    0.586910
C     -3.901881    1.425018    1.119640
C     -2.956530   -1.941036   -0.380620
C     -1.500385   -1.561883   -0.679254
C     -2.157443    1.280208   -0.562456
C     -3.805664   -0.769391   -0.024176
C     -1.083379   -0.655939    0.449769
C     -3.212256    0.096063    1.061514
N     -1.874440    0.518486    0.590934
H      7.336979    0.693799   -0.578860
H      6.875001    0.294513    1.099604
H      7.503089   -0.993029   -0.040826
H     -5.327224   -2.346271    0.064807
H     -5.161119   -1.374183    1.553724
H     -5.970461   -0.695053    0.071721
H      5.474655   -1.067003   -1.226558
H      4.948100   -0.820566    0.502504
H      4.944665    1.627434    0.149806
H      5.472236    1.425966   -1.538262
H      3.336532    0.286780   -2.117931
H      3.068803    1.945550   -1.365345
H      2.678465    0.910438    0.788330
H      2.951821   -0.726884    0.134825
H      1.101637   -0.407036   -1.474803
H      0.773005    1.206463   -0.807469
H     -4.245114    1.843639   -0.949024
H     -3.297879    3.104364   -0.080944
H      0.509247    0.264475    1.470859
H      0.893092   -1.369108    0.926147
H     -5.001301    1.359814    1.191603
H     -3.430588    2.026556    1.908864
H     -3.350858   -2.377545   -1.322354
H     -3.002615   -2.737298    0.388998
H     -0.906461   -2.497465   -0.586089
H     -1.482183   -1.114474   -1.665231
H     -2.291809    0.746940   -1.498720
H     -1.413012    2.099807   -0.772562
H     -4.010440   -0.180023   -0.916262
H     -1.363576   -1.273935    1.373540
H     -3.111892   -0.416857    2.015765
