95

C     -0.294877   -2.337443   -2.060796
C      0.009136   -1.010500    2.568458
C     -2.763493    3.973927   -2.895394
C     -2.799664    1.861956    2.142193
C     -4.037757    2.175497    1.787437
C     -1.586226    2.586537    1.962604
C      9.024341    2.192685    0.481759
C      8.684929    2.154637   -0.994614
C      9.169666    0.784187    0.964579
C     -4.556493    3.324198    1.127360
C     -0.618685    2.412675    1.081953
C     -2.266973   -4.143430    0.664677
C     -1.705294   -3.591737   -0.563341
C      7.370164    1.484919   -1.116389
C      8.064431   -0.134037    0.565867
C     -3.005479   -3.227800    1.566557
C     -4.487285    3.663670   -0.135062
C     -0.594120    1.342680    0.026849
C      3.193607   -0.775958   -2.880337
C      3.732020   -1.797375   -1.976827
C     -5.061732   -2.318981    2.243556
C     -6.433837   -0.852739    1.149749
C     -4.178965    1.425107   -1.234280
C     -0.667463   -2.754274   -0.654509
C     -0.324826   -0.948332    1.064303
C      7.088284    0.414647   -0.382229
C     -4.144865   -2.377578    1.154991
C     -6.196563   -1.578757    2.268623
C     -3.811216    2.856034   -1.170796
C     -5.579300   -0.854387    0.035926
C      0.383347    0.232417    0.451854
C     -5.583600    1.091596   -1.533925
C      0.051924   -2.280729    0.513391
C     -4.411080   -1.625018    0.011069
C      5.772827   -0.202565   -0.546966
C      2.630007    0.032795   -0.504919
C      3.595296   -0.351818   -1.533596
N     -6.117611    0.076283   -0.932118
N      4.910074    0.283963   -1.384442
O     -7.058955   -1.565800    3.369008
O     -6.326600    1.834928   -2.436979
O      0.230951   -3.267635    1.512952
O     -3.568358   -1.639654   -1.104905
O      5.470430   -1.321360    0.214321
O      3.017351    0.600414    0.573325
O     -3.977395    3.529462   -2.372037
O      1.238687   -0.169224   -0.583495
H     -0.581015   -1.309286   -2.283079
H     -0.688048   -3.061867   -2.810317
H      0.805255   -2.441372   -2.114122
H     -0.885884   -0.941088    3.191092
H      0.630568   -0.109480    2.823812
H      0.628432   -1.880128    2.820210
H     -2.901634    4.517147   -3.845110
H     -2.136645    3.075002   -3.168653
H     -2.219082    4.648562   -2.205297
H     -2.727485    0.906075    2.758123
H     -4.822280    1.410824    2.088114
H     -1.297738    3.418299    2.685791
H      8.246190    2.718598    1.054397
H     10.007472    2.686085    0.580514
H      8.655962    3.181175   -1.382573
H      9.449891    1.512785   -1.480775
H     10.154614    0.410687    0.575749
H      9.313312    0.823977    2.078125
H     -5.144639    4.096966    1.725841
H      0.259790    3.109376    1.096131
H     -3.026781   -4.933671    0.357295
H     -1.526321   -4.774477    1.232290
H     -2.187367   -3.912687   -1.518960
H      6.637108    1.873536   -1.808593
H      7.568796   -0.485072    1.512696
H      8.505028   -1.073910    0.134021
H     -2.304431   -2.641877    2.268546
H     -3.358591   -3.997428    2.368712
H     -4.968455    4.629772   -0.431863
H     -1.597448    0.883605   -0.027545
H     -0.325049    1.774541   -0.940997
H      3.887948   -0.478711   -3.721292
H      2.156129   -0.819717   -3.230118
H      3.068021   -2.469877   -1.422028
H      4.741868   -2.238053   -2.128708
H     -4.828670   -2.923877    3.153303
H     -7.382817   -0.258796    1.170236
H     -3.927341    0.894337   -0.288895
H     -3.574690    0.884892   -2.014736
H     -1.409058   -0.731129    1.013051
H     -2.687576    2.878392   -1.003359
H      0.996702    0.710742    1.280030
H      1.132733   -2.131971    0.167403
H     -6.868894   -0.862981    4.073733
H     -7.094942    1.404967   -2.964968
H      0.767997   -3.979628    1.080731
H     -3.161338   -1.536467   -1.867236
H      4.541646   -1.664877    0.339489
