28

C     -4.406359    0.531402   -0.617738
C      4.454288   -0.501422    0.471480
C      4.432238    0.793185    0.001482
C      3.290889   -1.218397    0.655647
C      3.202185    1.357477   -0.282409
C     -2.716034   -1.066408    0.211321
C     -1.534926   -1.540749    0.459859
C      0.879468   -1.322570    0.537204
C     -2.923785    0.282791   -0.290963
C      2.067016   -0.639951    0.367033
C     -0.357664   -0.738766    0.245799
C      2.026277    0.661579   -0.106681
C      0.782293    1.181139   -0.375278
O     -2.643804    1.180898    0.765953
O      0.690916    2.357228   -0.806871
O     -0.312128    0.486178   -0.194609
H     -4.584740    0.476106   -1.712128
H     -4.743171    1.511077   -0.271088
H     -5.031922   -0.238648   -0.102919
H      5.422777   -0.950629    0.696783
H      5.323296    1.381451   -0.153737
H      3.338364   -2.241108    1.028881
H      3.155353    2.380635   -0.655764
H     -3.619253   -1.684210    0.376803
H     -1.478498   -2.576816    0.838847
H      0.955509   -2.335997    0.908928
H     -2.387413    0.558509   -1.202927
H     -3.281170    1.916017    0.807999
