29

C     -1.888692    1.505581   -0.464818
C     -3.113364   -0.553374   -0.783380
C     -1.006376   -0.723233    0.373142
C      1.365447   -0.545052   -0.430110
C     -1.697539    0.045820   -0.664241
C      1.623857    0.909756   -0.240320
C      3.040380    1.288337   -0.019072
C      0.854489   -1.394212    1.794878
C      0.389404   -0.411864    0.738230
N      0.843038    0.896422    0.960582
O      3.409234    1.550583    1.147307
O      3.959156    1.362579   -1.036111
O      1.563244   -0.952262    2.713607
O      0.517753   -2.725326    1.758218
H     -1.066184    2.091046   -0.918828
H     -2.802337    1.882321   -1.037915
H     -2.100190    1.801977    0.569051
H     -3.620152   -0.555996    0.201475
H     -3.033261   -1.582426   -1.183562
H     -3.674824    0.074324   -1.477308
H     -1.657636   -0.736542    1.292442
H     -1.011823   -1.805756    0.028423
H      2.226554   -1.217917   -0.240734
H      0.792547   -0.784883   -1.353420
H     -1.214757   -0.175867   -1.651851
H      1.228670    1.492956   -1.097612
H      0.193857    1.655644    1.032949
H      4.925646    1.040200   -0.876139
H      0.953861   -3.432835    2.348008
