40

C      2.607489   -1.835583   -0.828568
C      2.733494   -0.719379    1.319957
C     -1.476031   -2.634402   -0.112754
C     -0.424369    2.608811    1.393735
C     -2.553862   -0.731140   -1.055763
C     -2.367648    0.718878   -1.252756
C      1.346607    0.828434   -0.895095
C      0.352275    1.943648   -0.808065
C      1.771059   -1.305175    0.344082
C     -1.770498   -1.363976    0.013807
C      0.753012   -0.344721   -0.192346
C     -2.027353    1.552190   -0.075388
C     -0.161006    0.237595    0.824255
C     -1.315878   -0.622977    1.213182
C     -0.562805    1.540960    0.294436
S     -2.647176    0.644701    1.411305
H      3.472273   -2.370551   -0.345487
H      2.035845   -2.573034   -1.410303
H      3.028027   -1.016365   -1.412332
H      2.305474   -0.290805    2.223668
H      3.478542   -0.032012    0.826521
H      3.378175   -1.579586    1.671763
H     -1.770603   -3.252566   -0.953574
H     -0.902626   -3.122328    0.661061
H      0.644733    2.947786    1.467984
H     -1.106887    3.434860    1.134555
H     -0.749226    2.173756    2.341266
H     -2.290521   -1.261677   -2.019239
H     -3.652705   -0.968289   -0.945421
H     -1.677030    0.880840   -2.124929
H     -3.346183    1.130540   -1.653206
H      2.308825    1.114163   -0.382588
H      1.555710    0.579863   -1.973191
H      0.935996    2.884140   -0.582199
H     -0.148076    2.169935   -1.772941
H      1.289463   -2.175182    0.789716
H      0.152144   -0.912758   -0.957505
H     -2.453355    2.547315   -0.044521
H      0.447721    0.392118    1.761193
H     -1.193026   -1.218030    2.105686
