101

C      9.465401    2.062569    0.508321
C      8.778459    1.728564    3.135958
C     -1.082188    3.253254    2.926367
C      2.796264    0.299370   -1.808582
C     -1.023654    1.211602   -1.606943
C      5.721801   -0.400717   -2.257100
C     -1.574306   -2.095618   -1.753934
C     -0.169737   -2.541972   -1.590793
C      2.759051   -2.625918   -1.834859
C      4.144937   -2.630560   -1.180248
C      0.946004    0.412171    0.518883
C      2.390428    0.095841    0.571610
C      7.325133    0.847787   -0.303272
C     -3.489301   -0.638123   -1.571987
C     -3.096988   -0.515693    0.918396
C     -8.426770   -0.480711    3.005781
C      8.162792    1.341758    0.807562
C      7.855274    1.194239    2.078940
C     -1.768741    2.564638    1.789430
C     -2.069636   -0.958431   -1.347431
C     -4.154660   -0.658992   -0.188093
C      0.676244   -1.325190   -1.304570
C      2.000167   -1.792318   -0.843612
C      0.045454   -0.545791   -0.150883
C     -7.988963   -0.554047    1.563993
C      4.216418   -1.283856   -0.442453
C     -2.149584    0.576530    0.467316
C      5.907903    0.511919    0.072437
C     -9.099609   -0.150454    0.657807
C     -8.709554    0.375802   -0.672392
C     -7.275941    0.192042   -1.057093
C      6.622161    0.516227    2.422462
C     -6.371811   -0.116606    0.099396
C      2.949945   -0.601630   -0.652130
C     -1.242888    0.082815   -0.626153
C      5.505366   -0.668002   -0.803711
O     -8.823954    0.786050    3.395653
O     -2.579346    3.181446    1.062322
O    -10.002314   -1.226757    0.573013
O     -9.123103    1.713425   -0.838869
O     -7.113114   -0.765279   -2.058375
O      6.313852    0.367058    3.645713
O      6.478153   -1.651532   -0.447846
O     -1.533378    1.244713    1.509784
O     -5.085133    0.347240   -0.135404
O     -6.901330    0.296673    1.318908
O      5.812842    0.048515    1.405902
H      9.317956    3.139828    0.414294
H      9.801980    1.663766   -0.474992
H     10.224858    1.767759    1.258270
H      9.221807    2.681601    2.780654
H      9.632464    0.988864    3.152641
H      8.306512    1.796624    4.115425
H     -1.331821    2.664439    3.844639
H     -1.499550    4.275309    3.043088
H      0.003961    3.354561    2.761848
H      2.620478   -0.183715   -2.792718
H      3.567183    1.094145   -1.887328
H      1.845921    0.896181   -1.641766
H     -2.024560    1.490828   -2.017459
H     -0.407816    0.946023   -2.468625
H     -0.678677    2.154517   -1.094610
H      6.668361   -0.870431   -2.660389
H      4.924550   -0.818056   -2.910687
H      5.837000    0.673550   -2.513177
H     -2.258027   -2.793964   -2.266888
H     -0.106562   -3.288792   -0.764013
H      0.231081   -2.994370   -2.526673
H      2.319479   -3.623519   -1.877460
H      2.780791   -2.216299   -2.847229
H      4.175394   -3.487200   -0.509668
H      4.939125   -2.728829   -1.925417
H      0.622778    0.461836    1.608650
H      0.740026    1.472574    0.182976
H      2.631704   -0.526800    1.452692
H      2.939709    1.056587    0.741884
H      7.869037   -0.026093   -0.728228
H      7.323754    1.591257   -1.160967
H     -3.678669    0.321329   -2.082813
H     -3.987975   -1.456140   -2.155509
H     -2.578992   -1.467475    1.097745
H     -3.644614   -0.123966    1.799467
H     -9.319363   -1.138664    3.103048
H     -7.630668   -0.905606    3.662509
H     -4.630000   -1.648194   -0.027922
H      0.696423   -0.742158   -2.246216
H      1.892976   -2.375733    0.074286
H     -0.261417   -1.334418    0.589291
H     -7.723616   -1.615815    1.369062
H      4.286986   -1.567924    0.651264
H     -2.831232    1.329528   -0.040217
H      5.223746    1.363216   -0.034450
H     -9.678486    0.654792    1.200606
H     -9.318514   -0.193574   -1.436054
H     -6.924172    1.162150   -1.505920
H     -6.292429   -1.238588    0.180896
H     -9.247804    0.661470    4.301781
H    -10.823146   -1.088788    1.071396
H     -8.323984    2.257019   -0.985926
H     -7.895474   -0.665037   -2.666100
H      6.433482   -1.823657    0.524687
