40

C      3.045311   -0.428512    0.786825
C      3.110543    1.839168   -0.143347
C     -1.766853    2.432296    0.864764
C      0.173249   -2.554030   -0.532385
C     -3.201179    0.550614    0.471435
C     -3.009432   -0.558737   -0.531093
C      1.052824    0.052051   -1.480899
C     -0.362525   -0.509281   -1.715562
C      2.250716    0.819278    0.594769
C     -1.930752    1.143203    0.968455
C      0.929815    0.634466   -0.090364
C     -1.986570   -1.566031   -0.079144
C      0.047322   -0.355824    0.587638
C     -0.938440    0.203596    1.554772
C     -0.584494   -1.220667   -0.411540
S     -1.922152   -1.356755    1.761566
H      4.095560   -0.098129    1.041490
H      2.716077   -0.989094    1.691295
H      3.148366   -1.058637   -0.098284
H      3.545488    1.413360   -1.069504
H      2.429202    2.677282   -0.433227
H      3.874598    2.284533    0.521255
H     -2.551206    3.032468    0.423985
H     -0.888792    2.981237    1.191458
H      1.246356   -2.414002   -0.643382
H     -0.046636   -3.132473    0.397022
H     -0.235969   -3.064705   -1.431701
H     -3.692943    0.069370    1.367751
H     -3.894389    1.305268    0.071456
H     -2.898028   -0.219008   -1.563893
H     -3.994523   -1.119893   -0.527439
H      1.213777    0.872721   -2.226740
H      1.820736   -0.706085   -1.597302
H     -0.985909    0.383301   -1.866300
H     -0.317156   -1.185581   -2.590705
H      2.070899    1.260443    1.600578
H      0.487980    1.638893   -0.223688
H     -2.287060   -2.577494   -0.345655
H      0.735360   -0.997300    1.219885
H     -0.499172    0.518689    2.485760
