66

C      6.122767    1.675184    1.515418
C      3.328128   -2.433135    2.092729
C     -6.586645    0.505957   -0.585398
C      0.623784    3.166608   -2.074046
C      5.563202    0.375373    0.908741
C      3.616108   -2.086831    0.674482
C     -5.444017   -0.485742   -0.485916
C      0.574950    1.681314   -1.830698
C      4.094606    0.324790    1.183209
C     -5.451434   -1.072261    0.880019
C     -0.753588    1.092560   -2.145636
C     -4.038547   -1.234524    1.391734
C     -3.265319   -1.849306    0.228543
C      0.240375   -0.913907   -0.961657
C      3.342739   -0.656575    0.364324
C     -0.987485   -0.236745   -1.489130
C     -3.152557   -0.737696   -0.820370
C      1.340233    0.031633   -0.583501
O      7.464132    1.831943    1.175575
O      2.242024   -2.265397    2.619782
O     -6.335215    1.651177    0.168394
O     -0.270410    3.833579   -1.258500
O      6.317758   -0.640378    1.432046
O      4.930089   -2.402107    0.404534
O      3.884272    0.276337    2.548008
O     -6.140045   -0.219350    1.750319
O     -1.758887    2.020381   -1.783714
O     -3.470991    0.001198    1.689371
O     -4.030007   -2.861746   -0.352480
O      0.759550   -1.777992   -1.924592
O     -4.256882    0.021496   -0.932276
O      0.893779    1.355946   -0.514132
O      1.959405   -0.374321    0.578664
O     -1.980170   -0.060179   -0.550493
H      5.982294    1.586723    2.605906
H      5.514511    2.485220    1.099304
H      4.113952   -2.856444    2.699428
H     -6.707728    0.873431   -1.647033
H     -7.559807    0.033720   -0.341730
H      1.652988    3.525198   -1.799052
H      0.434692    3.440844   -3.111671
H      5.774455    0.389984   -0.204313
H      2.995936   -2.741688   -0.004056
H     -5.713556   -1.324851   -1.192436
H      1.328038    1.190438   -2.507831
H      3.677728    1.388308    0.916459
H     -5.952347   -2.070179    0.921407
H     -0.806485    0.993859   -3.263730
H     -4.011796   -1.916347    2.278692
H     -2.258685   -2.161205    0.510717
H     -0.015614   -1.497650   -0.026067
H      3.550554   -0.470125   -0.703545
H     -1.417141   -0.923876   -2.272041
H     -2.995509   -1.286618   -1.777038
H      2.102372    0.030195   -1.388968
H      7.651063    2.811274    1.243841
H     -5.559739    2.102815   -0.265294
H     -0.601852    4.682542   -1.672917
H      6.756377   -0.417862    2.294493
H      5.144735   -2.491184   -0.551463
H      4.645083   -0.182199    3.028031
H     -7.107857   -0.394451    1.608984
H     -1.990651    1.863536   -0.829188
H     -3.967087    0.444062    2.401147
H     -4.483560   -3.404004    0.322424
H      0.448937   -2.692131   -1.685814
