59

C      0.277234   -2.443934   -1.446506
C     -4.816990    1.863495   -0.046811
C     -0.379601   -2.040262    1.090641
C     -2.421975    1.626629   -0.908922
C      4.429758    1.820049    0.530200
C      6.780321    1.462141    0.082767
C      3.128785    1.311702    0.513665
C     -3.257249    0.891461    2.456593
C     -1.905101    0.676573    1.818334
C      7.755184    0.615688   -0.363820
C     -2.045294   -1.753119   -1.595260
C      3.909289   -0.734731   -0.355707
C      0.422444    0.161732    0.444570
C     -0.659978   -1.279901   -1.199842
C     -4.292983    0.462565    0.175341
C      5.458198    1.032191    0.098382
C      2.861213    0.040416    0.073974
C     -4.297838    0.220600    1.638721
C      5.217990   -0.244700   -0.347059
C     -2.036445   -0.296137    0.666871
C     -3.019711   -0.625553   -1.593483
C      7.447709   -0.655910   -0.798305
C     -0.714425   -0.840825    0.221383
C     -2.881700    0.295720   -0.405757
O     -5.105328   -0.488687    2.163322
O     -2.852270    0.079950   -2.807657
O      8.352053   -1.450530   -1.216100
O      1.607678   -0.446008    0.059287
O      6.183859   -1.013223   -0.763305
H      0.271258   -3.193513   -0.652771
H      1.296260   -2.020149   -1.635885
H     -0.030250   -2.868598   -2.440936
H     -5.707004    1.958442    0.644278
H     -4.127674    2.652105    0.247939
H     -5.256038    1.995289   -1.067643
H     -1.021175   -2.907351    0.896341
H      0.704613   -2.262728    1.107162
H     -0.620267   -1.718766    2.146272
H     -3.265852    2.065216   -1.504288
H     -2.150807    2.353424   -0.150032
H     -1.574860    1.558557   -1.625802
H      4.656803    2.817418    0.872890
H      7.016022    2.462288    0.425308
H      2.341167    1.962231    0.862025
H     -3.292483    0.595156    3.517687
H     -3.463518    1.997960    2.363085
H     -1.373677    1.591549    1.572886
H     -1.280283    0.154861    2.601213
H      8.792212    0.915894   -0.389900
H     -2.363594   -2.494752   -0.836949
H     -2.044165   -2.200348   -2.618911
H      3.783242   -1.745015   -0.716664
H      0.249969    1.067881   -0.147776
H      0.500738    0.444441    1.509013
H     -0.312726   -0.464049   -1.890685
H     -5.012198   -0.226708   -0.285738
H     -2.626391   -1.148366    1.079754
H     -4.044782   -1.073516   -1.673438
H     -3.189369   -0.516247   -3.523500
