116

C     16.141052   -0.901168    1.070774
C    -14.865992    1.662099    0.716717
C     15.235848   -0.904200   -0.172170
C    -15.440341    0.474163   -0.013448
C     14.264429   -2.015299   -0.120525
C    -14.381194   -0.573121   -0.274520
C     13.324118   -2.179736   -1.247034
C    -13.299552    0.079240   -1.127696
C     12.332307   -1.105807   -1.442662
C    -12.196305   -0.883767   -1.443291
C     12.847404    0.209912   -1.703780
C    -11.499854   -1.427200   -0.240221
C     12.579379    1.269704   -0.988440
C    -10.862983   -0.332230    0.579553
C     11.709561    1.301006    0.203080
C    -10.182146   -0.927124    1.773719
C     10.570990    2.223270   -0.037534
C     -9.541444    0.119309    2.598093
C      9.331055    1.788149   -0.002845
C     -8.563917    1.004397    1.962621
C      8.885387    0.422038    0.258223
C     -7.330299    0.480122    1.362644
C      8.103815   -0.184718   -0.868195
C     -7.427537   -0.397777    0.182932
C      6.872451    0.555425   -1.230567
C     -6.059383   -0.847236   -0.331540
C      5.899991    0.637615   -0.087423
C     -5.223779    0.336287   -0.734144
C      4.615532    1.367401   -0.441111
C     -3.906041   -0.231852   -1.248202
C      3.890228    0.677722   -1.565369
C     -3.003087    0.876724   -1.673029
C      3.533326   -0.738799   -1.246027
C     -2.642008    1.842331   -0.587520
C     -0.366744   -1.760729    1.296052
C      1.179364    0.244775    1.575975
C     -0.194374   -0.296555    1.458894
C      2.628302   -0.880433   -0.064749
C     -1.953847    1.163626    0.549142
O      0.227342   -2.530869    2.288110
O      2.448019   -2.044591    0.354735
O     -2.371143    1.316963    1.722915
O      2.036809    0.171487    0.518938
O     -0.846819    0.351518    0.352385
H     15.569325   -0.705352    1.987021
H     16.845118   -0.057449    0.912699
H     16.661178   -1.865477    1.145144
H    -13.956849    1.323813    1.232963
H    -15.597480    2.102052    1.414288
H    -14.591288    2.445331   -0.025918
H     14.842198    0.076868   -0.314308
H     15.945520   -1.122355   -1.017606
H    -15.818995    0.814080   -1.001350
H    -16.275466    0.062975    0.601525
H     14.771001   -2.999829    0.145912
H     13.653363   -1.839951    0.838039
H    -14.872591   -1.391582   -0.830172
H    -13.987110   -0.971183    0.677036
H     13.885580   -2.411350   -2.213475
H     12.708310   -3.125052   -1.038136
H    -13.798857    0.332406   -2.095123
H    -12.924893    1.002495   -0.679949
H     11.635239   -1.160030   -0.556752
H     11.699845   -1.381388   -2.364813
H    -12.554084   -1.713876   -2.085358
H    -11.447732   -0.333361   -2.055675
H     13.518117    0.339381   -2.571263
H    -10.667511   -2.075965   -0.601824
H    -12.127416   -2.056148    0.401072
H     13.035116    2.230683   -1.288304
H    -11.686648    0.318766    0.966903
H    -10.226505    0.288994   -0.044757
H     11.426649    0.365206    0.638183
H     12.352429    1.855338    0.990058
H     -9.597858   -1.818436    1.581012
H    -11.059128   -1.333727    2.462026
H     10.775830    3.303297   -0.250329
H     -9.085958   -0.343452    3.551763
H    -10.400992    0.728647    3.057933
H      8.555491    2.572247   -0.196940
H     -8.320180    1.845908    2.708359
H     -9.075822    1.617685    1.130292
H      9.658102   -0.289346    0.601237
H      8.187614    0.482468    1.149771
H     -6.680192    1.391530    1.137899
H     -6.748252   -0.044010    2.197244
H      7.823984   -1.223226   -0.514238
H      8.730174   -0.380717   -1.766344
H     -7.981667   -1.310444    0.347898
H     -7.912155    0.160179   -0.668744
H      7.169698    1.603417   -1.513610
H      6.400611    0.148709   -2.156389
H     -5.541178   -1.410127    0.484301
H     -6.185108   -1.514956   -1.195823
H      5.635431   -0.393384    0.211313
H      6.406312    1.173115    0.768787
H     -5.026374    1.043188    0.102463
H     -5.735271    0.896910   -1.541479
H      3.989522    1.435463    0.469418
H      4.864468    2.399099   -0.818458
H     -3.418569   -0.847245   -0.469945
H     -4.160159   -0.914899   -2.069575
H      4.514897    0.722323   -2.469342
H      2.979590    1.288086   -1.821242
H     -3.348978    1.399160   -2.589184
H     -2.032808    0.389301   -1.985296
H      2.986396   -1.149716   -2.131545
H      4.450644   -1.353081   -1.150262
H     -1.954268    2.614285   -1.041194
H     -3.528776    2.371469   -0.199822
H     -1.506113   -1.954968    1.340171
H     -0.125782   -2.070001    0.273682
H      1.652884   -0.182151    2.534445
H      1.037077    1.365998    1.783061
H     -0.749231    0.040506    2.410200
H     -0.157387   -2.226397    3.146970
