52

C      4.917772    0.500473   -0.818215
C     -3.389016    1.298919   -0.450097
C     -3.349824    1.048802    1.965563
C     -0.467452    0.894746   -1.507325
C     -2.431956   -1.916713    0.060261
C      2.621585   -1.977592   -0.364727
C      1.531379   -1.193642   -1.116147
C     -0.713630    1.503654    1.357166
C     -3.465084   -0.940130    0.503662
C     -1.506633   -1.335534   -1.016358
C      0.751887    1.433767    1.408484
C      2.498300    0.952572   -0.200281
C      2.365982   -0.475204    1.629133
C      3.592460    0.223108   -0.195880
C      3.316474   -1.027377    0.578557
C     -1.397379    0.301046    0.752863
C      0.649166   -0.653432   -0.020450
C     -2.863167    0.443483    0.639520
C     -0.695895   -0.182874   -0.487441
C      1.452111    0.359779    0.713218
H      5.753036    0.052873   -0.241148
H      4.978053    0.067875   -1.834983
H      5.116699    1.582441   -0.902333
H     -2.730899    2.104857   -0.787615
H     -3.690049    0.727389   -1.354316
H     -4.341166    1.809122   -0.113193
H     -3.125825    2.132690    1.897726
H     -4.449352    0.948661    1.965816
H     -2.869998    0.556193    2.828666
H      0.464034    0.751336   -2.096790
H     -1.285492    0.912732   -2.286074
H     -0.353014    1.904716   -1.043859
H     -1.854598   -2.350522    0.899136
H     -2.956075   -2.772288   -0.441120
H      3.361064   -2.269076   -1.132189
H      2.210220   -2.856852    0.132164
H      2.089996   -0.395787   -1.659821
H      1.035751   -1.804969   -1.857565
H     -1.160052    1.628371    2.379083
H     -1.109097    2.395358    0.785103
H     -3.838862   -1.270713    1.498253
H     -4.348033   -0.926525   -0.184913
H     -2.165827   -1.051674   -1.867717
H     -0.902228   -2.186137   -1.368470
H      1.074032    1.404731    2.495381
H      1.137858    2.448736    1.080031
H      2.389916    1.857282   -0.792805
H      2.938930    0.162558    2.308324
H      1.818907   -1.295930    2.099531
H      4.211143   -1.472667    1.005141
H     -1.247957   -0.508056    1.529864
H      0.431801   -1.544576    0.644852
