53

C      1.394047   -2.992177    0.419911
C     -4.149457   -0.205191   -0.774573
C      0.350863   -0.999452    2.040246
C     -2.555880   -0.346745    1.639406
C     -0.769997   -2.478296   -0.714579
C      2.256830    0.528693   -0.830319
C      4.827126    0.621897   -0.575854
C     -1.991541   -1.977068   -0.065986
C      1.782140    0.044539    0.473150
C      5.749947    1.583884   -0.283429
C     -0.719147    1.572585    0.421506
C      3.804503    2.531378   -0.255588
C      0.531454   -1.928839   -0.277229
C     -2.923322    0.256944   -0.644147
C      3.580237    1.207804   -0.562637
C     -1.497316    2.307549   -0.644153
C     -0.651931    0.131097    0.033345
C     -2.504597    1.457838   -1.349576
C      0.476842   -0.667712    0.554692
C     -1.999628   -0.499092    0.252349
O     -2.182740    3.345745   -0.014575
O     -3.637568    2.181993   -1.719923
O      5.109453    2.690285   -0.102231
H      1.368957   -3.874881   -0.283416
H      2.437731   -2.685351    0.481185
H      0.941313   -3.339246    1.352413
H     -4.514034   -1.097471   -0.270325
H     -4.835932    0.334742   -1.422130
H      1.311712   -1.552310    2.274148
H     -0.443140   -1.684358    2.276775
H      0.425697   -0.065163    2.596182
H     -1.937770    0.181729    2.355885
H     -3.554832    0.184691    1.661400
H     -2.806838   -1.341756    2.116208
H     -0.911285   -2.417024   -1.837216
H     -0.736099   -3.598033   -0.541606
H      2.547774   -0.327371   -1.500398
H      1.595825    1.173384   -1.410280
H      5.053084   -0.426802   -0.782342
H     -2.238008   -2.603396    0.843632
H     -2.855642   -2.159482   -0.743954
H      2.559624   -0.683155    0.857629
H      1.776529    0.842297    1.264717
H      6.815368    1.412021   -0.223525
H     -1.139087    1.781905    1.402064
H      0.311074    1.980727    0.425184
H      3.064981    3.301314   -0.156275
H      1.101044   -1.666308   -1.192556
H     -0.794647    2.777045   -1.362401
H     -0.524233    0.135851   -1.095857
H     -2.031376    1.132610   -2.323186
H     -2.320658    3.114622    0.946090
H     -3.947448    2.801507   -1.017615
