26

C     -4.573531    0.688015    0.085244
C      4.406112    0.151787    0.207716
C      0.149220   -1.875977    0.110629
C     -0.612728    0.495421    0.298193
C      0.469908   -0.439173   -0.174656
O      1.204550   -2.660578   -0.352656
O     -2.825415    2.646183   -0.432575
O     -2.675861    1.650180    1.766038
O      2.749644    1.879990   -0.897548
O      2.767574   -0.355118   -1.890628
O     -1.849664    0.224990   -0.289077
O      1.644892   -0.076564    0.472285
S     -2.941704    1.334200    0.328105
S      2.841971    0.412665   -0.595542
H     -5.247393    1.238934    0.798648
H     -4.917697    0.917479   -0.954698
H     -4.579942   -0.390285    0.299014
H      4.776393   -0.883472    0.071709
H      5.125382    0.862009   -0.210741
H      4.252687    0.342780    1.305511
H     -0.811138   -2.136160   -0.392611
H      0.043065   -2.069844    1.198051
H     -0.753339    0.449125    1.384185
H     -0.324257    1.520386   -0.062818
H      0.587020   -0.322499   -1.270036
H      1.094249   -3.604474   -0.096095
