45

C     -3.564555   -1.429984    1.578758
C     -4.485540   -0.635559    0.911051
C      3.026423   -0.579412    1.582155
C     -2.216714   -1.373600    1.209801
C     -4.050572    0.192652   -0.102075
C      2.817831    0.759012    0.975089
C      0.663738    2.062163    0.934747
C     -0.591321    2.164737    0.127408
C      2.458628   -1.738518    0.803565
C      1.711437    1.345671   -1.157281
C      0.825379   -2.134026   -0.945978
C     -1.773048   -0.558412    0.208653
C      0.407707    1.173575   -1.951079
C     -0.176256   -1.160515   -1.589612
C     -2.707379    0.237387   -0.456665
C      0.475775   -0.209371   -2.502749
C      0.713493   -0.306630    0.403773
C      1.518568    0.999401    0.305007
C     -0.690375    1.124990   -0.960963
C     -0.499052   -0.288941   -0.398266
N     -2.021112    1.005635   -1.442862
N      1.656070   -1.238319   -0.243593
O      1.002587   -0.483261   -3.561446
H     -3.897396   -2.077871    2.369940
H     -5.518786   -0.702860    1.220135
H      4.120433   -0.760271    1.657432
H      2.650401   -0.580296    2.628766
H     -1.529841   -1.997572    1.742545
H     -4.798232    0.795853   -0.598616
H      3.642477    1.005363    0.261359
H      2.920085    1.522095    1.794689
H      1.184608    3.027469    1.060720
H      0.441154    1.709668    1.983500
H     -0.716594    3.144260   -0.336097
H     -1.466619    1.979829    0.811203
H      3.249694   -2.460560    0.465867
H      1.812282   -2.334587    1.492763
H      2.532238    0.741155   -1.616980
H      1.939194    2.434457   -1.196352
H      0.216550   -2.711708   -0.203643
H      1.311120   -2.752825   -1.696933
H      0.311095    1.936574   -2.731213
H     -1.042908   -1.677229   -1.994404
H      0.568583   -0.548966    1.465789
H     -2.431252    1.379344   -2.307910
