53

C      5.036304    1.509521   -0.224232
C     -3.255750    0.730527    1.429241
C     -0.713439   -1.703073    1.111324
C     -2.569436   -1.923485   -1.000821
C      3.190431   -1.392595   -0.543845
C      1.743990   -1.755089   -0.427299
C     -0.727636    1.245871    1.203840
C     -3.421289   -0.850479   -0.423511
C     -1.151219   -1.554304   -1.270576
C      0.649074    1.654314    0.830942
C      2.539769    1.255220   -0.628199
C      2.421309   -0.027252    1.395697
C     -3.313310    1.554738   -0.840669
C      3.886954    0.871951   -0.123189
C      3.632347   -0.437614    0.543724
C     -1.308373    0.477204    0.009415
C      0.865024   -0.513008   -0.439339
C     -2.768495    0.389702    0.008598
C     -0.548417   -0.813431   -0.065442
C      1.531175    0.573435    0.313433
O     -2.816114    2.763437   -0.406861
H      5.956906    1.125527    0.188185
H      5.071481    2.458821   -0.740028
H     -2.705435    0.191244    2.197343
H     -4.317528    0.347193    1.478761
H     -3.333704    1.817421    1.576892
H     -1.823633   -1.835377    1.267316
H     -0.363477   -2.728387    0.824388
H     -0.319057   -1.343513    2.054086
H     -2.539937   -2.848660   -0.349512
H     -2.978757   -2.326222   -1.976940
H      3.784966   -2.325681   -0.425732
H      3.446465   -1.007203   -1.567659
H      1.609040   -2.379397    0.453245
H      1.485525   -2.360102   -1.335224
H     -1.339416    2.170063    1.332777
H     -0.721577    0.654897    2.117955
H     -4.008672   -1.327086    0.421169
H     -4.237942   -0.642288   -1.182155
H     -0.586049   -2.486823   -1.476019
H     -1.111531   -0.854717   -2.117339
H      1.165523    2.146570    1.693884
H      0.563433    2.463929    0.058079
H      2.392269    0.907742   -1.669498
H      2.472819    2.339652   -0.599125
H      2.719941    0.751025    2.100734
H      2.032440   -0.938831    1.831537
H     -4.425077    1.579245   -0.671790
H     -3.115685    1.326221   -1.892709
H      4.459261   -0.794894    1.141085
H     -0.952366    1.073255   -0.885104
H      0.836661   -0.199679   -1.527596
H     -2.019783    2.990461   -0.953860
