25

C     -4.022703    0.837384   -0.210864
C      1.779109   -0.092155    0.077364
C      2.966307   -0.483184   -0.745010
C     -3.029355   -0.043941    0.509382
C      0.530547   -0.533998   -0.584263
C      4.247532   -0.088969   -0.167239
C     -0.771328   -0.221205    0.043191
C     -1.970937   -0.533904   -0.398568
C     -0.995267    0.501786    1.284751
O      0.595303   -1.164953   -1.666908
O      4.773531   -0.838576    0.726046
O      4.867457    1.072195   -0.586799
O     -2.151981   -1.252344   -1.600713
O     -0.050484    0.968958    2.005464
O     -2.354561    0.590981    1.535198
H     -4.146563    0.418644   -1.233471
H     -4.995262    0.735025    0.287328
H     -3.670647    1.869613   -0.318105
H      1.735571    1.030030    0.201308
H      1.881310   -0.502641    1.103811
H      2.797482   -0.045352   -1.768292
H      2.924599   -1.582982   -0.905207
H     -3.597418   -0.947324    0.833568
H      5.683676    1.385676   -0.072537
H     -3.025919   -1.078765   -2.075357
