110

C     10.468752    2.923160   -2.784754
C    -13.808626    4.096967   -0.387834
C     11.541970    3.803923   -2.176541
C    -12.339028    4.229795    0.008711
C     11.402994    3.857959   -0.666861
C    -11.529155    3.775457   -1.169637
C     10.036357    4.428049   -0.343792
C    -10.033155    3.861919   -0.895035
C      9.803058    4.520150    1.145660
C     -9.633471    3.011891    0.267956
C      9.880940    3.181476    1.822870
C     -9.931803    1.556758    0.094516
C      8.855323    2.208277    1.290668
C     -9.235938    0.936668   -1.082715
C      7.450580    2.701647    1.488748
C     -7.729754    1.019422   -0.999175
C      6.439545    1.702238    0.930841
C     -7.181969    0.332864    0.209205
C      6.542705    0.375475    1.587950
C     -5.673841    0.398185    0.312489
C      5.544262   -0.609611    1.067428
C     -5.051567   -0.261919   -0.890696
C      5.740183   -0.831806   -0.407371
C     -3.559257   -0.198412   -0.774085
C      4.798649   -1.837887   -0.977923
C     -3.056130   -0.899665    0.464000
C     -0.762341   -6.958253    1.447921
C      0.199930   -7.670965   -0.567776
C     -1.365037   -8.164933    1.651335
C     -0.388753   -8.915511   -0.411225
C      1.039348   -2.206968   -1.281249
C      0.971694   -3.062587    1.108202
C      0.024215   -6.685876    0.347898
C     -1.180270   -9.169776    0.708344
C      0.492618   -2.074178    0.104050
C      3.370725   -1.489325   -0.850901
C     -1.560700   -0.823876    0.486406
C      0.651899   -5.360843    0.174348
N     -1.791461  -10.413010    0.900914
O      2.942228   -0.435678   -0.338606
O     -0.982367    0.226266    0.813593
O      1.341417   -5.190591   -0.851435
O     -1.632639  -11.427528   -0.006832
O     -2.490285  -10.618482    1.900969
O      2.429757   -2.382501   -1.327677
O      0.515308   -4.349768    1.054826
O     -0.895389   -1.974761    0.128302
H     10.239202    2.076116   -2.092035
H     10.869905    2.531593   -3.745849
H      9.566608    3.505980   -3.048951
H    -14.366645    3.980934    0.560381
H    -14.149786    4.944678   -1.003350
H    -13.979992    3.167263   -0.964670
H     11.472389    4.807949   -2.630089
H     12.520854    3.378641   -2.471608
H    -12.125273    3.695569    0.943235
H    -12.146919    5.327888    0.144857
H     11.579268    2.865687   -0.216844
H     12.196010    4.536080   -0.300369
H    -11.806608    2.750672   -1.438140
H    -11.780597    4.487096   -2.008632
H      9.994100    5.445169   -0.745432
H      9.228627    3.830417   -0.788635
H     -9.854939    4.927532   -0.593467
H     -9.460794    3.700686   -1.805938
H      8.827210    5.003500    1.305587
H     10.632365    5.141848    1.588128
H    -10.119401    3.419531    1.177376
H     -8.536540    3.126337    0.447906
H     10.875542    2.747685    1.693089
H      9.687803    3.338162    2.895777
H     -9.730081    1.024774    1.043613
H    -11.022666    1.451268   -0.082864
H      9.055662    2.019609    0.232610
H      8.970614    1.283343    1.930687
H     -9.543206    1.424724   -2.029200
H     -9.497876   -0.136333   -1.180120
H      7.301175    3.679798    0.988469
H      7.259840    2.784284    2.574936
H     -7.351067    2.061372   -1.010465
H     -7.342265    0.539298   -1.927496
H      6.675707    1.597871   -0.155807
H      5.427250    2.113121    1.014960
H     -7.420946   -0.765844    0.089308
H     -7.679806    0.625876    1.148641
H      7.560367   -0.068482    1.417410
H      6.472392    0.481279    2.693094
H     -5.302915    1.444815    0.327660
H     -5.410046   -0.154158    1.245317
H      5.653823   -1.576362    1.615056
H      4.530348   -0.193342    1.304445
H     -5.349612   -1.324681   -0.997653
H     -5.332693    0.341586   -1.780924
H      6.787538   -1.183685   -0.535301
H      5.667778    0.126721   -0.972656
H     -3.173770    0.841497   -0.728297
H     -3.082194   -0.649532   -1.676932
H      4.966381   -2.807721   -0.455100
H      5.067599   -1.999479   -2.052494
H     -3.443353   -0.390972    1.396949
H     -3.398115   -1.940034    0.464686
H     -0.918436   -6.186653    2.194686
H      0.820721   -7.460671   -1.437751
H     -1.984906   -8.353567    2.533012
H     -0.247734   -9.697736   -1.139751
H      0.491545   -2.945947   -1.894175
H      0.858275   -1.223457   -1.836267
H      0.684725   -2.644510    2.124294
H      2.100665   -2.991663    1.142509
H      0.845372   -1.017260    0.439313
