58

C      4.586491    0.604018   -1.572742
C     -3.895009    1.639526    0.762924
C     -4.423238   -0.026045   -0.869126
C     -0.199236    1.434884   -0.075357
C      0.608314   -2.633309    1.838354
C     -1.843972    1.206950   -2.426265
C      2.284176   -0.186883   -0.854221
C      1.495272   -0.736185    0.311528
C     -2.066170    0.010377    1.678158
C      4.232407   -0.187420    0.671597
C     -2.889508    1.739509   -1.497824
C     -1.046574    0.077462   -1.911258
C     -1.303527   -1.200422    2.138302
C      5.681987    0.087950    0.936747
C      3.704474    0.051859   -0.507149
C     -2.198064   -0.054038    0.172261
C      0.057568   -1.007606    0.018154
C     -3.244915    0.824346   -0.368450
C     -0.798782    0.122964   -0.395431
C     -0.525229   -1.909511    1.089943
O      5.787668    1.010239    1.959537
O     -1.249328   -2.990914    0.523848
H      4.059953    0.777771   -2.511234
H      4.924821    1.607771   -1.206142
H      5.445679   -0.062268   -1.790401
H     -3.177255    2.104739    1.424855
H     -4.619444    1.034447    1.337012
H     -4.486316    2.464202    0.281564
H     -4.094379   -0.490247   -1.828814
H     -5.293562    0.619980   -1.113602
H     -4.656408   -0.843026   -0.179247
H     -0.055483    2.017331   -1.014541
H      0.684599    1.446142    0.572167
H     -0.929159    2.119941    0.479680
H      1.257482   -1.922929    2.389417
H      0.149391   -3.243876    2.678461
H      1.118945   -3.375453    1.225586
H     -1.169587    2.040585   -2.702084
H     -2.288333    0.870395   -3.411919
H      2.326481   -0.963018   -1.685065
H      1.828166    0.686746   -1.350009
H      2.030206   -1.713792    0.540587
H      1.664266   -0.164587    1.243741
H     -3.068530    0.007555    2.166624
H     -1.588434    0.955080    1.966207
H      3.618331   -0.587998    1.456409
H     -3.793189    1.941250   -2.127916
H     -2.647931    2.733991   -1.065528
H     -1.669463   -0.854764   -2.045967
H     -0.122005   -0.069839   -2.465948
H     -0.569122   -0.818121    2.909822
H     -1.939006   -1.912066    2.703780
H      6.199550   -0.846868    1.203047
H      6.144205    0.531566    0.031994
H     -2.467326   -1.106822   -0.062374
H      0.097607   -1.710432   -0.894814
H      5.320665    1.840203    1.653708
H     -0.990220   -2.991340   -0.432586
