83

C      6.312058    0.374352   -1.218209
C      5.460002    1.409998    0.888189
C     -2.443414   -2.284981    2.189044
C      2.430190    1.422263    2.288471
C     -4.416133    3.322251   -0.690819
C     -5.379346   -1.720653   -1.016763
C     -3.765243    1.363273   -3.414039
C      0.466493   -2.639579   -1.684676
C      0.382616   -4.151909    0.172135
C      0.662559    1.523787   -1.406650
C      0.099815   -2.868788    2.501718
C      1.430678   -2.426081    1.969619
C     -0.000112    3.353146    0.367033
C      5.402382    0.208781   -0.012102
C     -1.062695   -2.374514    1.646426
C      1.490678    1.588817    1.363785
C     -3.289350    2.829745    0.128945
C     -4.248309   -1.082421   -0.255922
C     -2.614144    0.692384   -2.794802
C      1.509038   -2.030673    0.544615
C      1.263675    3.010507    1.020080
C     -0.945694    2.142753    0.335308
C     -0.828411   -1.995219    0.398989
C      0.741995    0.418825    0.771824
C      1.691481   -0.569823    0.250867
C     -1.813727   -0.975334    0.053403
C     -1.166446    0.071610   -0.890497
C      4.011953   -0.047573   -0.404018
C      0.367333   -2.685053   -0.221260
C     -0.201017    0.992193   -0.265040
O     -3.398323    2.580606    1.366421
O     -4.420939   -0.235096    0.622617
O     -1.818276   -0.000455   -3.517255
O      1.294718    3.720209    2.258363
O      3.624130   -0.047692   -1.611984
O     -2.036591    2.612726   -0.424993
O     -2.988408   -1.464012   -0.558646
O     -2.296481    0.741879   -1.444210
O      3.054896   -0.304951    0.543597
H      6.637550   -0.641170   -1.527561
H      7.219784    0.907024   -0.865623
H      5.808796    0.904216   -2.054584
H      4.701690    2.159514    0.591908
H      6.489707    1.830605    0.884260
H      5.285401    1.066895    1.934086
H     -2.774347   -1.301575    2.478170
H     -3.158586   -2.914679    1.618299
H     -2.382298   -2.848955    3.179255
H      2.969787    2.280467    2.735805
H      2.710683    0.473492    2.650807
H     -4.851742    4.233436   -0.197182
H     -4.051018    3.653600   -1.662299
H     -5.203761    2.564707   -0.848565
H     -5.025252   -2.138683   -1.960043
H     -5.847766   -2.540161   -0.433288
H     -6.147499   -0.931503   -1.136731
H     -3.544672    2.419857   -3.654335
H     -3.956003    0.876791   -4.415441
H     -4.648720    1.228895   -2.757674
H      0.972646   -3.598310   -2.050228
H      1.125602   -1.887598   -2.147008
H     -0.529791   -2.740814   -2.177691
H      0.468551   -4.831415   -0.733067
H     -0.636571   -4.424070    0.560036
H      1.212336   -4.451865    0.803756
H      0.154282    2.353731   -1.926522
H      1.663512    1.805477   -1.133386
H      0.744804    0.728520   -2.215385
H     -0.062175   -2.295562    3.467256
H      0.007019   -3.908716    2.787755
H      2.112711   -3.312503    2.201877
H      1.872034   -1.630045    2.593950
H     -0.598496    4.113547    0.966902
H      0.093322    3.835200   -0.621198
H      5.830014   -0.650445    0.577561
H      2.409429   -2.522772    0.108680
H      2.139109    3.414985    0.478717
H     -1.241163    1.964173    1.394482
H      0.151631    0.094963    1.679786
H      1.660757   -0.469439   -0.871112
H     -2.160846   -0.295206    0.843081
H     -0.691878   -0.425647   -1.745533
H      0.507798    3.375743    2.748457
