60

C      3.745568   -1.879936    1.571545
C     -4.415941    0.169296    0.078825
C     -3.514949   -1.977714   -0.567444
C     -0.847739    1.035202    1.604507
C      1.087937    1.997782   -2.203508
C     -1.773982   -1.591807    2.126536
C      2.401065    0.181542    1.088055
C      1.605583    0.926380    0.076271
C     -3.106508   -1.113532    1.662887
C     -0.687814   -1.373692    1.092719
C      3.848275   -0.938623   -0.657069
C     -2.321342    1.440592   -0.726274
C      2.949037   -1.094451    0.556283
C      0.372855    0.304463   -0.459393
C     -2.026742    0.023037   -0.315633
C     -1.203579    1.963553   -1.539322
C      5.095675   -0.227647   -0.289983
C     -3.167109   -0.714240    0.241077
C     -0.729787    0.010538    0.496511
C     -0.029549    1.061614   -1.704082
O     -0.726851    3.174071   -1.014447
O      5.384068    0.143436    0.860639
O      6.054402    0.070917   -1.285232
O     -0.172773    0.200818   -2.824672
H      3.852558   -1.331582    2.529795
H      4.772650   -2.115606    1.227518
H      3.259867   -2.855836    1.777034
H     -4.776993    0.094059   -0.952828
H     -4.279258    1.170848    0.473626
H     -5.200222   -0.319724    0.713616
H     -3.075371   -2.881437   -0.144684
H     -3.162490   -1.842420   -1.607039
H     -4.606772   -2.133329   -0.623917
H     -0.326079    1.973354    1.419090
H     -1.895035    1.303511    1.849910
H     -0.404546    0.627065    2.561163
H      1.377454    2.745088   -1.476720
H      0.580428    2.580776   -3.034922
H      1.883769    1.454019   -2.726384
H     -1.548605   -1.082109    3.083816
H     -1.751116   -2.687456    2.363513
H      1.900703    0.077311    2.071533
H      3.273889    0.849613    1.323157
H      1.457716    1.976664    0.438715
H      2.293609    1.076286   -0.787434
H     -3.553570   -0.342252    2.361718
H     -3.819703   -1.982799    1.810635
H      0.285957   -1.608807    1.568382
H     -0.845996   -2.142642    0.310499
H      4.090107   -2.001049   -0.977192
H      3.382323   -0.426675   -1.503620
H     -3.270206    1.410824   -1.331837
H     -2.522514    2.125998    0.100833
H      2.113760   -1.752239    0.188035
H      0.699889   -0.714061   -0.847527
H     -1.739775   -0.508569   -1.272901
H     -1.566576    2.217114   -2.558766
H     -0.397620    3.774614   -1.704043
H      6.628732    0.910233   -1.153965
H     -0.930761    0.569616   -3.337604
