88

C      5.663007   -1.679631   -1.512809
C      5.353460   -0.272751    0.490820
C     -3.519533   -1.922358    2.002041
C      1.963351    1.232354    1.832850
C      4.734286    4.419140    0.472311
C     -2.832529    5.013291   -1.014907
C     -4.338209   -1.501856   -3.736041
C     -4.090576    2.296949    2.415432
C     -0.898853   -4.422189    0.615886
C     -0.527761   -3.397903   -1.518916
C     -0.273739    0.279690   -1.968577
C     -1.078991   -2.384480    2.585222
C      0.312076   -2.435639    2.074668
C      0.865241    2.501675   -1.304843
C      4.856148   -1.457783   -0.252850
C     -2.125465   -2.125286    1.520826
C      1.454037    1.069721    0.623717
C      4.026281    3.258427   -0.180559
C     -1.812355    4.101156   -0.457530
C     -4.105091   -1.310042   -2.293417
C     -3.608818    1.748550    1.137257
C      0.508276   -2.477127    0.599621
C      1.977932    1.898938   -0.518087
C     -0.434073    2.155717   -0.524963
C     -1.785675   -2.081837    0.231325
C      0.344851    0.059695    0.383811
C      0.997012   -1.198939   -0.030365
C     -2.601224   -1.037017   -0.332895
C     -2.078040    0.371349   -0.262206
C      3.408362   -1.428829   -0.583604
C     -0.712756   -3.086467   -0.102280
C     -0.670812    0.660533   -0.552898
O      4.634534    2.499477   -0.978281
O     -1.305274    4.373677    0.654771
O     -5.083694   -1.219654   -1.527077
O     -4.185740    2.061559    0.074428
O      3.043479   -1.626176   -1.794118
O      2.701691    2.986423    0.067297
O     -1.403929    2.942439   -1.147729
O     -2.877474   -1.224281   -1.736795
O     -2.552779    0.894789    0.963978
O      2.408245   -1.207368    0.314966
H      5.261589   -1.082990   -2.331734
H      6.720828   -1.397065   -1.340036
H      5.621094   -2.767454   -1.812513
H      4.552317    0.372584    0.892836
H      6.060801    0.307375   -0.144539
H      5.943642   -0.608699    1.359721
H     -3.719413   -0.960505    2.481554
H     -3.592406   -2.649709    2.881256
H     -4.304369   -2.315138    1.335019
H      2.746348    1.958657    1.973590
H      1.602602    0.654964    2.659310
H      5.268625    4.955783   -0.338544
H      3.938122    5.112590    0.826217
H      5.400340    4.071682    1.278953
H     -3.803307    4.507010   -1.193296
H     -2.413849    5.431043   -1.970963
H     -2.930794    5.881914   -0.339442
H     -3.555315   -2.196826   -4.150726
H     -5.314399   -2.013650   -3.861132
H     -4.360748   -0.546657   -4.299589
H     -3.681041    1.725947    3.294851
H     -5.189457    2.140859    2.465940
H     -3.922113    3.382576    2.529011
H     -1.006078   -5.276957   -0.102803
H     -1.840720   -4.433728    1.201773
H     -0.089422   -4.692701    1.288475
H     -1.267635   -2.969406   -2.218349
H      0.475987   -3.142173   -1.915812
H     -0.602170   -4.512831   -1.731588
H      0.811100    0.320881   -2.145944
H     -0.726280   -0.666902   -2.314495
H     -0.754252    1.058967   -2.638505
H     -1.376137   -3.243144    3.229343
H     -1.139902   -1.496366    3.285860
H      0.952529   -1.614318    2.470712
H      0.772448   -3.351175    2.568401
H      0.860770    3.635877   -1.231453
H      0.806726    2.306948   -2.357297
H      5.055261   -2.380266    0.376885
H      1.297400   -3.233650    0.385591
H      2.718278    1.360244   -1.138595
H     -0.131409    2.493208    0.488155
H     -0.160825    0.006262    1.374295
H      0.996192   -1.391754   -1.114970
H     -3.618269   -0.993838    0.093700
H     -2.711567    0.924596   -0.985854
