60

C      3.982192    0.171292    1.656596
C     -4.529098   -0.135041    0.454395
C     -4.273035    0.787693   -1.757164
C     -1.312843   -0.482561    1.648033
C      0.887453   -2.391039    0.176718
C     -2.462402    2.269642    1.198835
C      2.561390    0.140467   -0.427092
C      1.303424    0.472377    0.331933
C     -3.487773    2.043376    0.149525
C     -1.088542    1.753923    0.763273
C      4.980199    0.404988   -0.608508
C     -2.340464   -1.461614   -0.835159
C      3.792445    0.700466    0.275019
C      0.118341   -0.050230   -0.371102
C     -2.259545    0.031569   -0.630333
C     -1.074320   -2.071508   -1.294862
C      6.226809    1.008601   -0.088067
C     -3.571799    0.659158   -0.389950
C     -1.194755    0.272866    0.373915
C      0.201337   -1.456166   -0.800759
O     -1.079092   -3.419160   -0.924431
O      6.175247    1.674130    0.976197
O      7.422504    0.853631   -0.742960
O      1.059745   -1.477703   -1.937401
H      3.909847    0.969846    2.417096
H      5.039484   -0.220694    1.726545
H      3.271422   -0.659178    1.854206
H     -4.391236   -0.032237    1.528387
H     -4.618662   -1.204699    0.112305
H     -5.555270    0.290978    0.236418
H     -4.608629   -0.196833   -2.108159
H     -5.074645    1.543788   -1.712413
H     -3.492267    1.155927   -2.445203
H     -2.107961   -0.012496    2.256714
H     -0.362975   -0.286468    2.229214
H     -1.400520   -1.559099    1.575251
H      1.285383   -1.910969    1.071338
H      0.104024   -3.120846    0.552164
H      1.644254   -3.047809   -0.289507
H     -2.734220    1.927405    2.206688
H     -2.322817    3.386997    1.292017
H      2.530719    0.597747   -1.435229
H      2.750244   -0.948661   -0.540043
H      1.442779    0.088221    1.364018
H      1.321776    1.578635    0.443215
H     -4.464229    2.374189    0.518545
H     -3.240920    2.729925   -0.712677
H     -0.474484    1.794550    1.693806
H     -0.698645    2.369718   -0.045537
H      4.837554    0.767234   -1.636997
H      5.066544   -0.699907   -0.674115
H     -3.153309   -1.616901   -1.598404
H     -2.724609   -1.955150    0.082243
H      3.661216    1.811851    0.337485
H      0.009257    0.574956   -1.313576
H     -1.885707    0.444985   -1.616854
H     -1.124342   -2.101781   -2.425900
H     -1.985234   -3.761320   -0.745148
H      8.331171    1.070129   -0.319491
H      1.177591   -2.441195   -2.181974
