72

C     -0.050005   -3.044116    2.128428
C     -4.806000    2.725638    0.882277
C      6.062647    0.515662    0.803769
C      0.341704   -3.473446   -1.885469
C     -0.874473    3.437615    1.775336
C     -1.379765   -2.542251    1.626221
C     -2.107330   -1.431733   -2.285298
C     -2.881463   -0.223214   -1.995493
C      2.211229   -0.623852   -1.502549
C      2.714213    0.174864    1.167607
C     -2.548668   -0.822742    0.446950
C     -3.688082    1.238884   -0.337805
C      3.464785    0.182752   -1.202667
C      1.043140    0.273438   -1.473405
C      3.876053    0.039756    0.247236
C     -0.681264   -1.363326   -1.839061
C      1.565334    1.446100   -0.689346
C      2.943938    1.580275   -1.297330
C     -1.201346    0.854572   -0.664199
C     -0.842343    1.357540    0.708618
C     -0.101863   -0.821767    0.475486
C     -2.578359    0.235720   -0.558875
C      1.609631    1.043479    0.735926
C     -0.246568   -0.280256   -0.965496
C      0.301494    0.429326    1.179873
N     -1.328690   -1.295420    0.965626
O      3.495731    2.553678   -1.746890
O      1.708068    2.250854    1.478860
O      0.324975    0.357107    2.550670
O     -3.722965    1.846821    0.875549
O      4.803007    1.043499    0.517836
O     -0.419464   -2.596868   -1.185274
O     -0.382362    2.623226    0.808513
H     -0.255368   -3.931096    2.805523
H      0.493608   -2.337625    2.775444
H      0.585957   -3.474486    1.320211
H     -4.672624    3.477004    0.076775
H     -5.692988    2.104141    0.561872
H     -4.974711    3.172796    1.879374
H      5.962152   -0.143157    1.695815
H      6.699417    1.380228    1.117907
H      6.537982    0.029284   -0.050176
H      1.343444   -3.194315   -2.185326
H      0.492055   -4.367939   -1.201570
H     -0.229191   -3.950301   -2.747178
H     -0.332997    4.427575    1.661014
H     -0.570573    3.072367    2.777102
H     -1.934061    3.703411    1.710805
H     -2.015681   -2.422086    2.546851
H     -1.817790   -3.380759    1.026168
H     -2.651884   -2.306723   -1.859250
H     -2.157401   -1.606418   -3.391384
H     -2.589144    0.659730   -2.637503
H     -3.964646   -0.430147   -2.112875
H      2.372270   -1.055018   -2.524466
H      2.209280   -1.456838   -0.782723
H      2.355231   -0.876940    1.383335
H      3.132032    0.501622    2.167176
H     -3.113672   -1.714661    0.038320
H     -3.191408   -0.502072    1.322094
H     -3.667173    1.936251   -1.201924
H     -4.658157    0.674897   -0.459127
H      4.285693   -0.026512   -1.879610
H      0.847704    0.638884   -2.506138
H      4.368403   -0.964339    0.325665
H     -0.072399   -1.436859   -2.768687
H      1.065282    2.368336   -0.946276
H     -1.177064    1.649272   -1.439378
H     -1.614025    1.194590    1.485054
H      0.644637   -1.625397    0.508764
H      1.896062    1.971185    2.414359
H     -0.563193    0.550298    2.926859
