54

C     -5.107144    0.211584    1.682267
C      3.507142    1.404171    1.527459
C      3.578515    1.132342   -0.894894
C     -4.550261    0.638368   -0.972317
C      1.174911   -0.944544   -1.548971
C     -4.114195   -0.482541    1.118793
C     -0.320277    2.102125    0.557227
C      1.024333    1.862880   -0.124677
C      2.723488   -2.011504    0.387217
C      1.275097   -1.795706    0.718143
C     -1.413969   -0.876972   -1.316481
C     -2.486219    1.096473    0.193757
C     -1.160711    0.923817    0.230003
C     -0.669578   -0.424982   -0.060058
C      1.527925    0.559919    0.442343
C      3.606549   -0.847304    0.634205
C     -2.861549   -1.111154   -0.905920
C      3.013626    0.496475    0.380986
C     -3.443344    0.002475   -0.120358
C      0.794397   -0.607973   -0.136260
O      4.733492   -0.973353   -0.191240
O     -3.573009   -1.363327   -2.078251
H     -5.420857    1.140803    1.221454
H     -5.593597   -0.141713    2.582248
H      2.850688    1.308453    2.406401
H      4.536580    1.173712    1.806796
H      3.436205    2.466642    1.196476
H      2.762669    1.507744   -1.529919
H      4.229110    2.008454   -0.683874
H      4.252709    0.411509   -1.433986
H     -4.671791    1.721070   -0.712136
H     -4.270543    0.586561   -2.044466
H     -5.510801    0.138293   -0.845420
H      0.976763   -2.052431   -1.669036
H      0.583632   -0.373895   -2.293078
H      2.226004   -0.812091   -1.793614
H     -3.806981   -1.400137    1.576922
H     -0.137986    2.060697    1.662893
H     -0.734361    3.053880    0.245112
H      0.767500    1.772653   -1.220348
H      1.692080    2.693766    0.089998
H      3.057552   -2.882121    1.027693
H      2.831296   -2.393607   -0.658690
H      0.725384   -2.704111    0.470958
H      1.198742   -1.496207    1.785038
H     -1.045126   -1.817767   -1.717987
H     -1.406683   -0.025550   -2.013826
H     -2.907558    2.077067    0.401226
H     -1.054299   -1.110883    0.751844
H      1.254528    0.566847    1.541727
H      4.014951   -0.952845    1.683668
H     -2.886186   -2.050280   -0.282447
H      5.274543   -1.760501    0.114110
H     -4.483386   -1.705281   -1.884924
