48

C      2.915715   -2.022203   -1.092292
C      1.773628   -3.164712    0.700802
C     -3.488667   -0.848034    1.617111
C      4.148959    2.821231   -0.606127
C      2.845674    2.855917   -0.167454
C      4.843143    1.619474   -0.544964
C      2.269483    1.705107    0.316673
C      4.264718    0.475015   -0.061334
C     -3.891649    0.295081   -1.819783
C     -3.257510    1.687558    0.083585
C     -2.599206   -0.475256   -1.872810
C     -1.781197    1.533271   -0.229041
C      2.385174   -1.916308    0.094193
C      2.959483    0.487346    0.382823
C     -4.059647    0.486092   -0.307045
C     -2.257701   -0.849103   -0.446969
C     -1.360455    0.170159    0.212281
C      0.841996   -0.403535    1.100365
C      2.285957   -0.706343    0.932219
N     -3.553919   -0.752608    0.198191
O      0.298641   -0.396374    2.249400
O      2.901016   -0.980122    2.151730
O     -0.009438   -0.113615    0.063320
H      2.898825   -2.994620   -1.593642
H      3.381514   -1.237710   -1.673981
H      1.307104   -3.738689   -0.144308
H      0.956232   -2.909701    1.396427
H      2.602825   -3.726728    1.170814
H     -3.454176    0.119459    2.140675
H     -2.669948   -1.532630    1.909512
H     -4.433026   -1.354074    1.972410
H      4.681747    3.673264   -1.001276
H      2.314831    3.789957   -0.217671
H      5.885075    1.592220   -0.895762
H      1.229147    1.764399    0.660367
H      4.799981   -0.473308    0.006302
H     -3.858856    1.250164   -2.344973
H     -4.775680   -0.337432   -2.119572
H     -3.621289    2.541836   -0.552330
H     -3.414071    1.986152    1.130060
H     -2.826737   -1.439708   -2.402760
H     -1.791951    0.053527   -2.385674
H     -1.274147    2.335748    0.383943
H     -1.591934    1.756071   -1.278295
H     -5.102680    0.660520   -0.049043
H     -1.829299   -1.867286   -0.361362
H     -1.580908    0.110231    1.318039
H      3.693225   -1.529699    1.977223
