54

C     -3.551923    0.125221   -1.506760
C     -0.222440   -0.799015    1.482810
C     -2.453064   -2.121414    0.311814
C      1.675234   -1.506277   -0.750321
C     -0.926517    1.720491    0.485818
C     -3.240081   -0.909927    0.667897
C     -1.221949   -1.825493   -0.523717
C      3.082563   -1.332968   -0.292427
C      0.526705    1.966634    0.366796
C      3.172776    0.758177   -1.616395
C      2.093862    1.518703   -1.470769
C      2.616608    0.794092    0.641191
C     -3.615038    1.486226    0.517022
C      4.978705    0.231450    0.019519
C     -1.419138    0.550285   -0.279245
C      0.781063   -0.330970   -0.677392
C     -2.876265    0.310963   -0.139820
C     -0.545493   -0.638589    0.048787
C      3.543084    0.113765   -0.349495
C      1.377889    0.954591   -0.256352
O     -4.964389    1.069873    0.607534
O      5.149595   -0.248847    1.314879
H     -3.867115   -0.915831   -1.668513
H     -4.382346    0.807520   -1.669103
H     -2.799535    0.348313   -2.318710
H     -0.986826   -1.321108    2.092035
H      0.055201    0.107282    2.024798
H      0.687699   -1.468171    1.550433
H     -2.157095   -2.737330    1.210919
H     -3.055483   -2.850582   -0.308430
H      1.747116   -1.944402   -1.795124
H      1.282977   -2.391141   -0.160576
H     -1.260225    1.585055    1.558026
H     -1.542560    2.610291    0.151231
H     -4.319403   -1.131323    0.411569
H     -3.272605   -0.686614    1.763449
H     -1.559233   -1.564827   -1.570343
H     -0.661369   -2.746125   -0.608104
H      3.161964   -1.616268    0.799216
H      3.775531   -2.006445   -0.815947
H      0.649329    2.941476   -0.200991
H      0.877547    2.272249    1.403037
H      3.706300    0.633470   -2.551848
H      1.791495    2.356806   -2.083551
H      2.411200    0.201629    1.528201
H      2.948148    1.805025    0.902242
H     -3.604321    2.381821   -0.109301
H     -3.294403    1.640756    1.559704
H      5.562148   -0.436634   -0.643877
H      5.339765    1.255519   -0.111387
H     -1.234671    0.781087   -1.372907
H      0.395104   -0.157187   -1.735284
H     -5.545765    1.590585    0.007138
H      5.189642   -1.231867    1.261334
