26

C     -3.377337   -0.486800   -1.663092
C     -3.721239    0.124728    0.660521
C      3.687627    0.658078   -0.424867
C     -1.402332   -0.428500   -0.278861
C     -0.887195   -0.209996    0.919774
C      1.400710   -0.291266   -0.046772
C     -2.837083   -0.272068   -0.464869
C      2.773321   -0.050750    0.540203
C      0.550308   -0.343340    1.202593
C      2.450083    0.782126    1.727800
O      3.298283    1.419352    2.403806
O      1.076492    0.731974    1.952096
H     -4.437114   -0.381650   -1.842295
H     -2.778083   -0.777226   -2.514482
H     -3.489805   -0.491176    1.569326
H     -3.518725    1.199272    0.922192
H     -4.786887   -0.019126    0.428154
H      3.507270    1.742182   -0.481681
H      3.629561    0.196549   -1.411766
H      4.738700    0.485722   -0.054470
H     -0.722553   -0.711389   -1.051047
H     -1.539412    0.078987    1.732528
H      1.051215    0.581832   -0.659848
H      1.344284   -1.232058   -0.626997
H      3.203424   -1.013282    0.840023
H      0.786484   -1.292174    1.736090
