45

C     -4.672644    1.978465   -1.281671
C     -3.473861    1.119034    1.992889
C      3.714405    1.305829    2.366055
C     -3.936640    0.898371   -1.356508
C     -2.230731   -0.838734    2.606669
C      2.603366   -1.393343   -1.703518
C     -1.107181   -1.524260    2.320282
C      3.739994   -1.943657   -1.148046
C      0.832346    0.307486   -1.671052
C      2.599523    0.205186    0.034061
C     -1.564224    0.492473   -1.890829
C     -2.726269    0.132703    1.619927
C      2.033656   -0.308297   -1.100357
C     -2.558701    0.896269   -0.785645
C     -0.473090   -0.282776   -1.194305
C      4.296210   -1.426022   -0.018914
C     -0.403431   -1.310687    1.070291
C      3.737753   -0.327099    0.610801
C     -2.299175   -0.109821    0.250967
C     -0.751806   -0.161477    0.242508
O      5.449099   -1.968022    0.562137
O      0.482494   -2.110393    0.726708
O      4.318104    0.186022    1.759542
H     -4.295469    2.869288   -0.811673
H     -5.666460    1.977670   -1.694209
H     -3.736901    1.221301    3.069416
H     -3.901419    1.905055    1.398450
H      4.145608    1.522449    3.369496
H      2.624966    1.170428    2.530632
H      3.842998    2.185195    1.701125
H     -4.274161   -0.017752   -1.818959
H     -2.732239   -1.015611    3.540548
H      2.226549   -1.863005   -2.598084
H     -0.752208   -2.239851    3.060718
H      4.213349   -2.807583   -1.608223
H      0.860889    0.114534   -2.784154
H      0.818591    1.411828   -1.582427
H      2.166728    1.070829    0.537319
H     -2.122572   -0.140829   -2.631451
H     -1.204553    1.410883   -2.383848
H     -2.258753    1.890257   -0.448539
H     -0.507599   -1.337851   -1.538944
H     -2.605483   -1.147405   -0.098703
H     -0.357626    0.785115    0.662804
H      5.906565   -2.782197    0.140004
