78

C      5.686419   -0.209756    2.691585
C     -0.054002    4.659979    1.830874
C     -6.084593    1.114617   -0.040692
C     -4.269225   -1.478607    3.186091
C     -2.597918   -4.828595   -2.584404
C     -0.734054   -1.853813   -2.183720
C     -1.310093    2.491517    0.634963
C     -3.309536    1.380851    0.051754
C     -2.681967   -1.133644    0.945664
C      1.613928   -1.082880   -2.474644
C      1.189006    0.866834   -0.312445
C      5.298159    0.535745    1.413967
C     -1.895543    1.420224    0.044754
C      0.247939   -0.691350   -2.066207
C     -1.917867   -0.999090   -0.144679
C     -1.593787   -2.042806   -0.984113
C      0.128461   -0.050070   -0.675614
C     -2.099367    3.484021    1.211369
C     -4.102292    2.335971    0.606536
C     -3.184088   -2.410154    1.253255
C     -1.288573    0.309285   -0.594188
C      6.091679   -0.100908    0.296021
C     -3.468254    3.406604    1.196842
C     -2.863586   -3.466669    0.413951
C      5.339917    0.027034   -1.037618
C      4.505347    1.298132   -0.858431
C     -2.073943   -3.313510   -0.706752
C      3.440035    1.017290    0.125470
O      1.492832   -1.518991   -3.830085
O      7.273631    0.602250    0.152639
O     -4.252486    4.391711    1.769120
O     -3.364162   -4.748241    0.717366
O      4.506372   -1.085109   -1.082763
O      3.971125    1.736776   -2.055993
O     -1.456123    4.569374    1.809630
O     -5.504677    2.243003    0.583227
O     -3.983420   -2.597999    2.376679
O     -1.799423   -4.422423   -1.495105
O      2.459118    0.192161   -0.362463
O      3.927963    0.397265    1.285842
H      6.729230   -0.024461    2.971309
H      5.589467   -1.301718    2.419776
H      4.953207   -0.038066    3.496497
H      0.315135    5.477193    2.471978
H      0.321037    4.726677    0.783727
H      0.332374    3.714876    2.305363
H     -7.176594    1.289113   -0.132929
H     -5.860775    0.170392    0.477566
H     -5.721765    0.989386   -1.099048
H     -4.806070   -0.729795    2.581023
H     -3.314536   -1.043835    3.510867
H     -4.834632   -1.778198    4.096825
H     -3.252552   -4.039152   -2.963591
H     -1.896749   -5.229863   -3.361325
H     -3.219596   -5.678930   -2.235416
H     -1.305829   -1.823500   -3.130226
H     -0.104283   -2.784210   -2.233220
H     -0.217209    2.638070    0.664093
H     -3.849900    0.537138   -0.415673
H     -2.945412   -0.332576    1.635801
H      2.049304   -1.926809   -1.947594
H      2.257406   -0.185781   -2.579262
H      1.351644    1.776114   -0.900621
H      1.148820    1.045263    0.808457
H      5.572654    1.614123    1.532927
H     -0.125807    0.085330   -2.771284
H      0.306327   -0.983048    0.000547
H     -1.690480    0.360319   -1.695810
H      6.330722   -1.159753    0.521889
H      6.027923    0.103480   -1.884113
H      5.226777    2.087127   -0.465826
H      2.941909    1.989948    0.420584
H      0.605467   -1.930984   -3.929000
H      7.259697    1.479739    0.611887
H     -5.244006    4.362542    1.773639
H     -3.945115   -4.882117    1.534579
H      4.793058   -1.731167   -1.788814
H      4.116196    2.711103   -2.193264
