45

C     -3.753988    3.095499   -0.806481
C     -4.023920   -1.604435   -0.685124
C      5.440501    1.312554    1.103955
C     -3.781724    1.772529   -0.831988
C     -2.933347   -2.180858    1.390615
C      1.757697   -1.331384   -1.161601
C     -1.803219   -2.019924    2.077706
C      2.841839   -2.175823   -0.997370
C      0.645439    0.820514   -0.919239
C      2.978145    0.420767   -0.139128
C     -1.414004    1.898457   -0.314033
C     -3.222614   -1.233605    0.282869
C      1.805405   -0.025573   -0.737856
C     -2.559703    0.966527   -0.757528
C     -0.327045    0.933328    0.200861
C      3.974957   -1.714801   -0.409433
C     -0.863762   -0.945899    1.762415
C      4.057961   -0.421007    0.024019
C     -2.547951    0.047607    0.411960
C     -1.046661   -0.330238    0.424901
O      5.070776   -2.558361   -0.240336
O     -0.005964   -0.622694    2.589680
O      5.242291   -0.000186    0.619392
H     -4.629599    3.729126   -0.858532
H     -2.796436    3.589721   -0.731588
H     -4.230264   -0.918739   -1.482786
H     -4.494268   -2.598779   -0.708107
H      6.292494    1.248240    1.831437
H      5.660914    2.030277    0.287501
H      4.520297    1.660523    1.630642
H     -4.785328    1.327479   -0.911895
H     -3.638370   -2.980452    1.619643
H      0.903649   -1.797333   -1.651448
H     -1.588299   -2.721895    2.899062
H      2.797646   -3.209558   -1.334997
H      0.080925    0.483099   -1.836020
H      1.024030    1.842536   -1.221043
H      3.064413    1.441701    0.211060
H     -1.772373    2.460456    0.589020
H     -1.063455    2.542060   -1.115654
H     -2.282197    0.465355   -1.692589
H      0.111414    1.384519    1.119068
H     -2.836956    0.557745    1.327963
H     -0.893482   -1.136953   -0.307929
H      5.024139   -3.502120   -0.551064
