42

C      2.772896   -2.977503    0.035287
C      2.177859    4.165901    2.007777
C      3.532203   -1.707376   -0.270439
C      2.580633   -0.513861   -0.472461
C     -4.097254   -0.655781   -2.193448
C      1.827286   -0.354453    0.789444
C     -2.645510   -0.540273   -1.888650
C     -5.003517   -0.170951   -1.366211
C      1.473779    2.868108    2.024315
C      0.835476    0.761348    0.873879
C     -2.464843   -0.527168   -0.413182
C     -4.597995    0.492855   -0.119845
C     -0.294486    0.728418   -0.084343
C     -1.057744   -0.563928    0.083271
O      0.837635    2.481876    3.024437
O     -5.449525    0.964966    0.676965
O     -0.070351    0.957209   -1.397472
O     -0.423524   -1.666498   -0.473751
O      1.478209    2.024896    0.957551
O     -3.219889    0.555388    0.099526
H      1.924927   -3.060578   -0.652000
H      3.481288   -3.818656   -0.122459
H      2.481930   -3.026064    1.114933
H      1.552292    4.916177    2.534811
H      2.345142    4.531020    0.967239
H      3.171697    4.120417    2.485834
H      4.185440   -1.511519    0.621405
H      4.203569   -1.831515   -1.122219
H      1.976595   -0.798641   -1.328619
H      3.242988    0.360260   -0.666612
H     -4.387506   -1.143220   -3.102745
H      1.341614   -1.351120    1.015291
H      2.601099   -0.286092    1.613580
H     -2.041775   -1.290567   -2.416240
H     -2.363176    0.474141   -2.304779
H     -6.073147   -0.259130   -1.601951
H      0.354754    0.667412    1.877692
H     -2.939045   -1.469113   -0.010245
H     -1.009364    1.561882    0.309835
H     -1.142733   -0.821496    1.183741
H     -0.080926    0.140088   -1.913917
H     -1.017000   -2.426857   -0.375227
