78

C      2.448573    3.121477   -1.166629
C     -0.766567    0.774411    3.518299
C      0.913107   -4.527549   -1.282484
C     -0.769903    0.083311   -1.463234
C      2.039206    1.503719    2.075912
C      2.906602   -1.297518   -1.530329
C      4.372708   -1.125643   -1.454328
C      1.733989    0.115676    1.993918
C      2.479421    2.293779    1.134537
C      2.417293   -2.704245   -1.823788
C      4.891330   -0.692095   -0.098055
C      0.633169   -0.427124    1.504458
C     -4.739042   -0.564937   -1.419710
C     -3.231717   -0.501181   -1.474394
C     -2.639730    0.912316    1.973938
C     -6.801094    0.368908   -0.522027
C      2.763408    1.899029   -0.239517
C     -1.353916    0.696074    2.131328
C      1.341240   -3.127584   -0.806102
C     -5.302219    0.630417   -0.669491
C      4.829107    0.535967    0.341757
C     -3.210799    0.828923    0.591781
C     -0.502163    0.394087    0.943381
C     -2.683973   -0.370067   -0.093201
C      4.188065    1.557388   -0.583386
C     -4.721206    0.738173    0.695058
C      5.291070    1.166962    1.582334
C     -0.756316   -1.916793    0.004299
C     -1.160191   -0.455935   -0.098202
O     -7.365153    1.440686    0.161988
O      4.345071    1.353617   -1.902455
O     -5.164036    1.915040    1.289794
O      5.103759    2.440469    1.752023
O      5.930166    0.620257    2.674021
O     -1.502815   -2.503311    0.847091
O      0.243828   -2.348475   -0.743850
H      2.133296    2.791990   -2.157461
H      1.548084    3.572811   -0.678640
H      3.255256    3.843602   -1.104610
H     -0.309346    1.736292    3.736908
H     -0.031232   -0.028312    3.639022
H     -1.611872    0.619593    4.236251
H     -0.056229   -4.783683   -0.823245
H      1.709521   -5.269670   -1.072945
H      0.775794   -4.497781   -2.378398
H     -1.050276    1.145919   -1.474632
H     -1.201282   -0.514085   -2.260487
H      0.325321   -0.040591   -1.529142
H      1.956059    1.995166    3.069550
H      2.375625   -1.045912   -0.601392
H      2.435725   -0.667916   -2.344534
H      4.892072   -0.688050   -2.305538
H      4.760758   -2.207661   -1.550682
H      2.439774   -0.663957    2.401244
H      2.640190    3.364025    1.370504
H      3.239192   -3.445416   -1.721932
H      1.950167   -2.802846   -2.819628
H      5.291625   -1.616801    0.378157
H      0.539392   -1.529646    1.502137
H     -5.053396   -1.473666   -0.893806
H     -5.164070   -0.491460   -2.459762
H     -2.901233   -1.453585   -1.960967
H     -2.996280    0.403400   -2.085503
H     -3.278158    1.145495    2.815863
H     -6.965033   -0.540950    0.106009
H     -7.202354    0.266573   -1.533043
H      2.008551    1.195408   -0.542440
H      1.933761   -3.324764    0.110451
H     -5.166260    1.575231   -1.211063
H     -2.957687    1.734938    0.039662
H     -0.120494    1.327224    0.478054
H     -3.045914   -1.273086    0.482281
H      4.713227    2.567743   -0.414302
H     -4.997280   -0.116893    1.350619
H     -7.650480    2.177049   -0.408971
H      3.590002    1.421886   -2.498391
H     -5.666583    1.720642    2.111419
H      6.711796    1.043516    3.158644
