77

C      4.528686   -0.490643   -2.303512
C      3.232166   -2.196302    1.950876
C     -5.653245    2.244181   -0.677840
C     -1.295547   -3.525887   -1.605061
C     -0.297818    3.073690   -1.198999
C     -0.415304   -0.140779    1.897205
C      3.704183    2.040132    0.454640
C      1.533846   -3.221774   -0.176518
C      3.035304    3.411064    0.202691
C      0.794008   -3.472458    1.012555
C      3.992100    1.359800   -0.803300
C      2.472036   -2.299547   -0.354774
C      1.526281    3.251176    0.368163
C     -0.363779   -2.896499    1.266358
C     -3.857700    1.864178    0.910867
C     -2.776416    0.928370    1.453245
C     -2.880294   -1.792653   -1.131200
C      4.245546    0.075409   -0.920237
C      2.933239   -1.349019    0.681634
C     -4.887561    1.185265    0.096167
C     -1.774078   -2.431173   -0.740083
C      0.964912    2.361934   -0.746077
C     -3.327008   -0.700318   -0.227098
C     -1.164772   -1.959891    0.528673
C     -2.234004    0.202964    0.222359
C      4.265484   -0.795957    0.271314
C     -4.368448    0.200459   -0.910859
C     -0.027278    0.005720   -0.577763
C     -0.901984   -0.504844    0.510107
O      5.011845   -0.261638    1.310132
O     -5.397949   -0.644789   -1.323430
O     -0.035436   -0.691070   -1.616301
O      0.666713    1.102157   -0.392425
H      5.024918   -1.465570   -2.150594
H      5.301838    0.149750   -2.805183
H      3.620721   -0.584431   -2.894514
H      3.324989   -3.272433    1.618174
H      2.372313   -2.170573    2.643891
H      4.197412   -1.952600    2.386131
H     -4.899478    2.850961   -1.221015
H     -6.268355    1.733668   -1.443380
H     -6.253053    2.890657   -0.010424
H     -0.547646   -3.235000   -2.364395
H     -0.961730   -4.411300   -1.008335
H     -2.141700   -3.961242   -2.222247
H     -0.853470    2.484761   -1.950640
H     -0.098558    4.112882   -1.529327
H     -0.955205    3.147894   -0.302228
H      0.225813   -0.978866    2.248590
H     -1.311786   -0.185918    2.557878
H      0.013887    0.849535    1.984582
H      3.029295    1.538120    1.145663
H      4.621768    2.295292    1.040067
H      1.442621   -3.876236   -1.080999
H      3.226616    3.730100   -0.836052
H      3.367964    4.162009    0.915644
H      1.162796   -4.257877    1.763478
H      4.002392    1.959374   -1.725020
H      2.931959   -2.227651   -1.327643
H      1.102607    4.251836    0.376056
H      1.358834    2.740736    1.334229
H     -0.726290   -3.254389    2.292418
H     -4.334766    2.439726    1.703408
H     -3.312563    2.587443    0.255043
H     -2.026105    1.589788    1.904303
H     -3.249296    0.222208    2.177400
H     -3.410946   -2.055535   -2.047188
H      2.220453   -0.618631    1.017518
H     -5.657359    0.650115    0.712426
H      1.686457    2.509443   -1.583387
H     -3.908654   -1.135992    0.641735
H     -2.135072   -1.963727    1.194449
H     -2.131197    1.016138   -0.531372
H      4.878319   -1.704514   -0.052425
H     -3.930828    0.657849   -1.798680
H      4.497177   -0.016838    2.085408
H     -5.744821   -1.172223   -0.544953
