29

C     -4.629312   -0.376909    0.148823
C     -2.278891   -1.241428    0.177758
C     -0.138242   -0.414224   -0.797384
C      1.953372    0.390091   -1.705103
C      2.986183    0.522262    0.847999
C     -3.162156    0.009963    0.265269
C      1.164573    0.023036   -0.641135
C     -0.870990   -0.764855    0.300698
C      1.690325    0.091837    0.641357
C      3.262859    0.826711   -1.515147
C      3.757635    0.884572   -0.230253
C      0.886110   -0.279812    1.697211
O     -2.948166    0.660400    1.457186
O      4.052470    1.195846   -2.599485
O      5.076754    1.324129   -0.035804
O      1.336231   -0.228524    2.881478
O     -0.341854   -0.685958    1.482055
H     -5.016402   -0.658493    1.157385
H     -5.168184    0.494608   -0.256903
H     -4.758028   -1.232945   -0.542706
H     -2.467268   -1.790502   -0.751145
H     -2.514644   -1.876190    1.057548
H     -0.553860   -0.469036   -1.806898
H      1.535805    0.334050   -2.707895
H      3.355410    0.559893    1.869689
H     -2.930859    0.627524   -0.628674
H     -3.720879    1.195035    1.764203
H      4.992006    1.506356   -2.431758
H      5.450006    1.370593    0.901631
