32

C      4.503507    0.350271   -0.536793
C     -1.973196    1.939443   -0.184202
C      2.306781   -0.498449   -1.407471
C      0.936581   -0.674133   -1.290187
C     -3.518079    0.108265    0.604944
C      3.013586    0.152872   -0.423982
C     -2.278967    0.507333   -0.218961
C      0.227111   -0.214792   -0.203761
C     -1.210393   -0.472068   -0.106608
C      2.314609    0.616116    0.667735
C      0.928739    0.431493    0.776040
C     -1.531774   -1.763485    0.069138
C     -2.901925   -2.187780    0.157688
O      3.046721    1.271449    1.650389
O      0.372848    0.946650    1.936253
O     -0.474631   -2.688005    0.163265
O     -3.217299   -3.395898    0.315476
O     -3.895652   -1.187911    0.058342
H      4.781772    1.108116   -1.270934
H      4.855765    0.631128    0.487062
H      4.953594   -0.639361   -0.759297
H     -1.914286    2.332436   -1.254543
H     -1.063118    2.297434    0.277350
H     -2.884547    2.475527    0.211150
H      2.853026   -0.872231   -2.279582
H      0.428310   -1.202185   -2.107535
H     -4.372294    0.768849    0.388948
H     -3.335620    0.076312    1.668748
H     -2.716547    0.343998   -1.297487
H      2.552799    1.625451    2.468379
H     -0.612202    0.886838    2.163922
H     -0.175217   -3.073682   -0.723483
