97

C      7.163505   -2.931064   -2.696655
C      7.254468   -1.865920   -0.377408
C      0.480794    7.039943   -0.000287
C      2.269134    5.475685    1.007247
C     -3.727357    2.031245   -3.565961
C     -5.684499    1.318406   -2.145107
C      2.643012   -3.322277   -1.126012
C      4.177308   -2.864297    0.663714
C     -1.132584    2.769418   -1.430717
C     -2.190550    2.236047    0.707202
C     -4.780125   -4.187450    5.054160
C      5.410243   -1.423796   -1.940284
C     -0.025845    4.739993    0.728025
C      4.666258   -0.518595   -1.048137
C     -3.491932   -2.752337    0.405808
C      0.349455    3.441691    1.301676
C     -4.837288   -3.006265    0.360743
C     -3.431533    0.425889   -1.675506
C     -1.995632    0.201249   -1.801361
C     -3.388319   -3.308472    2.687572
C      2.569419   -0.010421    0.009810
C      0.802769    1.078435    1.283534
C      6.544944   -2.033621   -1.651380
C      0.878646    5.737158    0.580013
C     -4.198933    1.208685   -2.421362
C      3.305626   -2.385030   -0.460166
C     -2.740490   -2.889198    1.535773
C      3.176883   -0.995981   -0.897574
C      0.301857    2.241002    0.425445
C     -5.456945   -3.421351    1.519023
C     -4.745555   -3.579834    2.699850
C     -0.780830   -1.503048    1.087077
C     -1.332921   -2.605430    1.549213
C      0.688430   -1.270252    1.125220
C     -1.619453   -0.429257    0.548442
C      0.249813   -0.000126   -0.844304
C     -1.041927    1.902076   -0.192917
C      1.133961   -0.108086    0.341529
C     -1.149066    0.467833   -0.582173
O     -6.815841   -3.684860    1.501277
O     -0.430166   -3.545856    2.087152
O      1.375924   -2.050622    1.793535
O     -2.747655   -0.293393    1.074978
O      0.588459   -0.254844   -1.930628
O     -5.442648   -4.002311    3.820577
H      6.493346   -3.816368   -2.784467
H      8.195889   -3.168282   -2.453752
H      7.078162   -2.330355   -3.643630
H      7.170963   -2.694730    0.334601
H      8.366496   -1.808891   -0.606883
H      7.058171   -0.873133    0.104395
H      0.821339    7.113244   -1.064294
H      0.993804    7.880319    0.550615
H     -0.605617    7.194023   -0.029832
H      2.367102    5.329561    2.100307
H      2.603581    4.533453    0.519936
H      2.933342    6.320050    0.711666
H     -2.768006    1.746251   -3.986149
H     -3.773757    3.104294   -3.223305
H     -4.474431    2.006611   -4.407524
H     -6.231141    1.341195   -3.108755
H     -5.915977    2.153210   -1.467521
H     -6.032821    0.367660   -1.645458
H      1.987410   -3.064310   -1.956794
H      2.750858   -4.379070   -0.841205
H      4.979033   -3.539730    0.263182
H      3.546629   -3.549367    1.282288
H      4.536714   -2.074865    1.316013
H     -0.743988    2.246732   -2.348331
H     -2.099681    3.251827   -1.549193
H     -0.400404    3.646559   -1.379486
H     -2.434751    3.324838    0.774467
H     -3.109428    1.794985    0.267938
H     -2.088607    1.792383    1.725416
H     -3.808593   -4.706867    4.872119
H     -4.667778   -3.241137    5.614970
H     -5.347907   -4.885967    5.719906
H      4.944178   -1.581845   -2.932936
H     -1.023552    5.007819    0.399796
H      4.670703    0.523090   -1.434520
H      5.080336   -0.472845   -0.027117
H     -3.008114   -2.440768   -0.507768
H      1.371631    3.571864    1.773283
H     -0.303276    3.316766    2.217441
H     -5.363493   -2.874606   -0.570292
H     -3.949945   -0.120113   -0.874394
H     -1.909167   -0.946793   -1.983261
H     -1.661773    0.675417   -2.724282
H     -2.856619   -3.438144    3.621274
H      3.140151    0.027264    0.963572
H      2.748189    1.008969   -0.446566
H      1.725499    1.411236    1.768254
H      0.049074    0.852162    2.016945
H      2.813124   -0.953640   -1.941041
H      1.077083    2.366016   -0.359516
H     -7.383176   -3.589262    0.684175
H     -0.383614   -4.427469    1.585057
