32

C      4.454744    0.345068   -0.247232
C     -2.273835    2.019322    0.510167
C      2.200454    1.374432   -0.051826
C      0.806354    1.249701   -0.043087
C     -3.163539   -0.176396    1.289382
C      2.973680    0.256478   -0.231041
C     -1.934429    0.603506    0.948588
C      0.233883    0.011775   -0.213715
C     -1.228544   -0.068932   -0.175268
C      2.395898   -1.005804   -0.404867
C      1.026838   -1.108877   -0.392972
C     -1.948695   -0.733494   -1.058417
C     -3.420571   -0.845070   -0.975113
O      3.217141   -2.079099   -0.578572
O      0.440284   -2.340970   -0.558573
O     -1.295520   -1.362104   -2.128037
O     -4.079656   -1.478015   -1.830798
O     -3.987342   -0.191933    0.120864
H      4.789481    0.226503   -1.282661
H      4.793537    1.325281    0.156361
H      4.901921   -0.422347    0.426599
H     -3.384636    2.177826    0.605399
H     -2.025739    2.172686   -0.554933
H     -1.786899    2.798945    1.121882
H      2.660103    2.333738    0.080224
H      0.261341    2.153007    0.099748
H     -3.722749    0.249967    2.150416
H     -2.901447   -1.192886    1.552519
H     -1.268162    0.709180    1.851767
H      2.911982   -3.003661   -0.707967
H      0.951831   -3.183474   -0.692250
H     -0.597709   -0.814350   -2.616548
