31

C     -4.336815    0.186049   -0.597638
C      1.614457   -0.890892   -1.933593
C     -2.007498    0.539737   -1.372812
C     -0.646495    0.590135   -1.164062
C      1.954814    0.520373    1.406115
C      3.626082   -0.441710   -0.583566
C     -2.868732    0.233631   -0.346121
C      2.276504    0.065737   -0.937937
C     -0.064929    0.335383    0.086614
C      1.420551    0.327096    0.221922
C      3.394243    0.489100    1.620968
C     -2.329804   -0.018421    0.883173
C     -0.941263    0.034617    1.083468
O      3.896519    0.667902    2.731320
O     -3.147738   -0.332761    1.960821
O     -0.480681   -0.239597    2.355621
O      4.169185    0.247427    0.509322
H     -4.839983   -0.640438   -0.096905
H     -4.835795    1.131140   -0.297642
H     -4.495810    0.089944   -1.704033
H      1.646762   -0.434296   -2.926322
H      0.693720   -1.336759   -1.592427
H      2.344153   -1.764202   -2.017349
H     -2.429028    0.744192   -2.367441
H     -0.023383    0.870012   -2.015365
H      1.310423    0.748742    2.284864
H      4.302814   -0.360744   -1.464681
H      3.547597   -1.541969   -0.367407
H      2.406525    1.031780   -1.466188
H     -4.131540   -0.382340    1.868938
H     -1.024855   -0.468868    3.150829
