51

C      2.571448    0.792219    5.287899
C     -3.729407   -4.210247   -0.089272
C      2.847829    0.253661    0.123623
C     -1.796235    0.339860   -2.029233
C      2.067775    0.436839    2.460589
C     -1.546115   -1.596995   -0.721277
C     -0.523493    0.117029    1.565508
C      3.434124    0.688330   -2.272188
C      1.791095    0.267597    1.138608
C     -1.019371   -0.427301   -1.205487
C      2.507742    1.042919   -1.114607
C      0.492806    0.105730    0.677077
C     -0.254365    0.288889    2.921238
C     -3.088519   -0.033171   -2.381978
C      1.025571    0.451376    3.405471
C     -2.843364   -2.002432   -1.055630
C      0.344529   -0.065705   -0.787147
C     -3.604513   -1.186530   -1.902764
C      0.540863    2.385146   -1.287252
C      1.047787    1.010277   -1.520732
O      3.045705    1.469768   -3.362019
O     -1.301858    0.299564    3.816873
O     -3.848483    0.763255   -3.216551
O     -4.904744   -1.554146   -2.264234
O      0.392956    3.133786   -2.285421
O      0.215365    2.909208   -0.057757
O      1.083530    0.713503   -2.896818
O      1.300863    0.622297    4.741857
O     -3.371441   -3.121140   -0.600695
H      3.303246    0.047482    4.893188
H      2.908103    1.842155    5.058207
H      2.509576    0.731837    6.398138
H     -3.898078   -4.286519    1.045441
H     -2.949410   -5.048416   -0.218445
H     -4.642874   -4.713711   -0.570001
H      3.827635    0.553454    0.526804
H      2.974889   -0.811189   -0.216269
H     -1.455789    1.255555   -2.444702
H      3.072487    0.564747    2.845452
H     -1.003222   -2.273537   -0.057129
H     -1.539202   -0.002773    1.249624
H      4.465156    0.973585   -1.954341
H      3.371080   -0.386546   -2.469143
H      2.764679    2.097953   -0.866344
H      0.949383   -1.014205   -1.011221
H      3.403848    2.389898   -3.169469
H     -2.241576    0.185313    3.474318
H     -3.456332    1.621134   -3.569859
H     -5.244446   -2.433249   -1.866505
H     -0.708949    3.332189    0.067212
H      0.711713    1.481256   -3.430428
