36

C      5.178305    3.356765   -2.026818
C     -3.838354    0.202001    0.311450
C      4.159471    2.850733   -1.484105
C     -2.889347   -1.023562    0.303560
C      2.955061    2.262907   -0.838431
C     -0.551587   -2.675245    1.707608
C      2.154150    1.574429   -1.581434
C     -0.267019   -2.538222    0.341068
C     -0.342771   -1.537260    2.528577
C     -0.669588   -1.756479   -0.592664
C      0.122908   -0.324371    2.062433
C      0.911114    0.826935   -1.431398
C     -1.652717   -0.666795   -0.492114
C      0.976974    0.072182    0.956489
C      0.223602    0.741430   -0.163234
Cl     2.178172   -1.117029    0.493011
O     -1.125462    0.485139   -0.116420
H      6.038147    3.797780   -2.500857
H     -4.439790    0.167880    1.216643
H     -3.227962    1.106795    0.162119
H     -4.492562    0.097312   -0.576737
H     -3.503845   -1.803394   -0.245074
H     -2.736021   -1.251634    1.356612
H      2.784742    2.395699    0.184381
H     -0.919045   -3.579170    2.195096
H      2.563181    1.553224   -2.672190
H      0.451230   -3.330885   -0.085537
H     -0.614584   -1.785991    3.571702
H     -0.252663   -1.889185   -1.647113
H     -0.870137    0.325157    1.883351
H      0.473676    0.362835    2.966564
H      0.258916    1.142300   -2.298915
H      1.229608   -0.220355   -1.831222
H     -2.131404   -0.590717   -1.551606
H      1.672709    0.905069    1.386444
H      0.192894    1.863721    0.208609
