36

C      6.042527   -0.048356   -0.360112
C     -2.014307   -2.454081   -1.462163
C      4.922078    0.075187   -0.779869
C     -1.066790   -1.439926   -0.816092
C      3.584904    0.222920   -1.307735
C     -1.929682   -0.741881    2.029879
C      2.686412    0.985691   -0.691259
C     -3.048107   -0.385606    1.196837
C     -0.906831    0.031434    2.360689
C     -3.024783   -0.090322   -0.089777
C     -0.793370    1.418023    1.889958
C      1.302137    1.187574   -1.166050
C     -1.753515   -0.106438   -0.830468
C      0.529775    1.538978    1.137978
C      0.302764    0.722752   -0.143893
Cl     0.766332    3.254225    0.736036
O     -1.001089    0.962813   -0.505021
H      7.031580   -0.140381    0.008050
H     -3.047031   -2.050113   -1.460383
H     -2.043402   -3.396518   -0.888131
H     -1.751016   -2.632012   -2.524721
H     -0.795226   -1.838908    0.150087
H     -0.193254   -1.368378   -1.497118
H      3.315747   -0.283887   -2.198273
H     -1.869987   -1.750911    2.491450
H      3.030766    1.472549    0.212762
H     -4.046275   -0.371121    1.650196
H     -0.087507   -0.326872    3.005975
H     -3.970363    0.169970   -0.607274
H     -1.646941    1.687452    1.270284
H     -0.704007    2.054485    2.807730
H      1.179871    0.534652   -2.073721
H      1.137231    2.251391   -1.483427
H     -2.014789    0.036482   -1.924646
H      1.330367    1.129820    1.750066
H      0.545782   -0.310688    0.112154
