45

C      4.295809   -0.229731    1.202704
C      4.950331    0.032211   -1.146328
C     -2.556084    2.483739   -1.030007
C      0.614633   -2.841831    1.117022
C     -2.542739   -1.725227    1.147603
C     -3.909581   -1.810513    0.961857
C      1.690961    0.704702    0.571747
C     -6.094091    0.776414   -0.331189
C     -1.814246   -0.635414    0.706506
C      0.252616    0.525560    0.454729
C     -4.584910   -0.792494    0.321171
C      2.563934    0.141365   -0.478132
C     -2.513295    0.360477    0.073772
C     -0.414936   -0.573394    0.910943
C     -3.867648    0.311790   -0.129034
C     -0.502530    1.525433   -0.188858
C      4.010404    0.508521   -0.075479
N     -1.827004    1.434131   -0.365212
O      2.576761   -1.219158   -0.643706
O      0.118486    2.541837   -0.608424
O      4.117051    1.865111    0.109950
O      0.144618   -1.634658    1.565566
O     -5.927235   -0.595998   -0.006999
O     -4.773703    1.171339   -0.726002
H      4.182383    0.468580    2.059434
H      5.295015   -0.683951    1.219985
H      3.575100   -1.060002    1.388502
H      4.941210   -1.077602   -1.217705
H      5.975137    0.346337   -0.868251
H      4.643115    0.452958   -2.123878
H     -1.793389    3.227630   -1.408418
H     -3.072709    2.153497   -1.961018
H     -3.186867    3.068643   -0.341896
H      0.036886   -3.741054    1.493598
H      1.639186   -2.991479    1.533970
H      0.633427   -2.989157    0.012682
H     -1.998170   -2.512893    1.648433
H     -4.457175   -2.691794    1.324442
H      2.088916    0.317103    1.560617
H      1.928643    1.813129    0.644282
H     -6.369675    1.296639    0.608832
H     -6.825017    0.887521   -1.133686
H      2.385934    0.636876   -1.482820
H      2.530005   -1.554228   -1.555782
H      3.840444    2.309036   -0.722985
