67

C     -9.257621   -0.071501    1.355036
C      7.864285   -2.456761    3.122618
C      1.682378    0.345479   -0.475247
C      0.190581    0.097011   -0.212732
C      1.873812    0.762290   -1.900480
C     -0.386473   -0.966196   -1.049297
C      3.335074    1.042306   -2.238007
C     -1.766095   -1.409219   -0.895851
C      3.861563    2.143787   -1.382643
C     -2.955428   -0.591742   -1.124647
C      5.314761    2.448680   -1.708163
C     -3.125808    0.597310   -0.270050
C      6.207715    1.267144   -1.497039
C     -4.461109    1.312127   -0.551955
C      6.203829    0.759869   -0.081601
C     -5.644215    0.434801   -0.305422
C      7.154809   -0.436271   -0.026020
C     -7.957234    0.076426    1.534470
C      7.906248   -1.995251    1.707898
C     -5.675790   -0.034825    1.129452
C     -6.872744   -0.926610    1.396755
C     -6.707830   -1.768431    2.578029
C     -7.285255    1.311111    1.922530
O      8.636254   -2.599739    0.883832
O     -7.404317   -1.664556    3.618874
O     -5.726105   -2.748028    2.566926
O     -7.817473    2.443004    2.134069
O      7.140817   -0.909771    1.327310
O     -5.906710    1.033491    2.027228
H     -9.645414   -1.038522    1.066202
H     -9.968476    0.726209    1.481043
H      6.999306   -3.159816    3.200611
H      7.761508   -1.615733    3.838952
H      8.795987   -2.994979    3.357539
H      2.009298    1.197282    0.175018
H      2.217348   -0.579912   -0.237908
H      0.061117   -0.149054    0.865365
H     -0.327215    1.056222   -0.371247
H      1.522800   -0.036039   -2.599761
H      1.280092    1.680645   -2.088619
H     -0.230759   -0.752480   -2.166207
H      0.291273   -1.884526   -0.932650
H      3.911692    0.091697   -2.097945
H      3.355057    1.294062   -3.314930
H     -1.866468   -1.831947    0.172938
H     -1.902626   -2.391947   -1.496992
H      3.831602    1.837191   -0.319302
H      3.288385    3.060350   -1.598716
H     -3.100480   -0.330085   -2.225303
H     -3.852168   -1.286954   -0.919848
H      5.427854    2.799171   -2.739933
H      5.668304    3.270189   -1.034992
H     -2.376758    1.381749   -0.558384
H     -2.981077    0.364948    0.775476
H      6.008441    0.464333   -2.231424
H      7.253687    1.618463   -1.700769
H     -4.422154    1.670044   -1.585393
H     -4.487039    2.181501    0.121161
H      6.624189    1.540488    0.583870
H      5.207960    0.469285    0.289764
H     -6.555011    1.072616   -0.485717
H     -5.657492   -0.390472   -1.037476
H      8.171202   -0.088667   -0.302683
H      6.790875   -1.215600   -0.719481
H     -4.753401   -0.528175    1.442147
H     -7.087388   -1.495039    0.468624
H     -5.685970   -3.502434    3.236818
