52

C      4.233618   -1.346309   -1.452516
C     -3.080849    0.484880   -1.890558
C     -3.396090    1.510972    0.245727
C     -1.169403   -0.041669    2.162054
C     -2.353217   -2.004561    0.573274
C      3.458112    0.364213    1.291333
C     -0.727763    1.873099   -0.250999
C     -3.268339   -0.970746    0.040568
C     -0.896038   -1.763573    0.479847
C      2.805506    1.346431    0.322445
C      0.708735    1.859071   -0.757627
C      1.687826   -1.360939    1.027647
C      2.054795   -0.176750   -1.357191
C      3.222340   -0.883973   -0.751611
C      3.160238   -1.033154    0.739858
C     -1.220786    0.464621   -0.304480
C      0.896655   -0.049963    0.879998
C     -2.689403    0.311757   -0.408262
C     -0.566730   -0.297384    0.804208
C      1.507146    0.716252   -0.233683
H      4.264513   -1.231727   -2.523766
H      5.053891   -1.850009   -0.971353
H     -2.893847   -0.502379   -2.365677
H     -2.543251    1.314137   -2.353509
H     -4.193037    0.635167   -1.877919
H     -4.476806    1.295326    0.340755
H     -2.908476    1.817419    1.176110
H     -3.320039    2.404210   -0.441762
H     -0.585594   -0.631742    2.910175
H     -0.996233    1.022838    2.436694
H     -2.234439   -0.227038    2.232042
H     -2.540497   -3.035325    0.143184
H     -2.594456   -2.152470    1.668704
H      4.562744    0.519054    1.162102
H      3.126305    0.491583    2.319325
H     -0.710858    2.209421    0.805536
H     -1.299001    2.564494   -0.903577
H     -4.085146   -0.728424    0.790443
H     -3.874532   -1.477927   -0.775768
H     -0.533859   -1.996335   -0.528067
H     -0.396857   -2.418900    1.253436
H      2.562335    2.260495    0.869032
H      3.480678    1.611425   -0.505501
H      1.123240    2.855158   -0.543508
H      0.650612    1.792923   -1.882763
H      1.370206   -2.111660    0.289859
H      1.657830   -1.714367    2.078393
H      2.419919    0.490266   -2.147731
H      1.358912   -0.941597   -1.673167
H      3.838276   -1.791415    1.124721
H     -0.793454    0.020832   -1.255609
H      1.144568    0.504288    1.837068
