42

C      2.694977   -1.979752   -0.487025
C     -1.836041   -2.239344    1.497456
C     -2.616407   -1.264506   -0.595347
C     -0.138378    3.309974    0.036319
C      2.960511    0.491887   -0.136605
C      1.946099    1.616174   -0.190654
C     -1.711933    0.142368    1.169153
C     -1.468218    1.452675   -1.078273
C     -0.176884   -1.426827   -0.098011
C      2.193394   -0.747010    0.164375
C     -1.806308    1.358746    0.333815
C      0.661886    0.936532    0.338201
C     -1.503453   -1.149760    0.456932
C     -0.466110    1.814410   -0.076976
C      0.784050   -0.361814   -0.333227
O      0.989586   -0.109645   -1.714500
H      3.801047   -2.006293   -0.399465
H      2.324835   -2.858760    0.112827
H      2.387428   -2.105656   -1.539301
H     -1.022316   -2.336273    2.228320
H     -1.838486   -3.197207    0.911763
H     -2.828451   -2.104271    1.923655
H     -3.181926   -0.315936   -0.694476
H     -3.361227   -2.038395   -0.350604
H     -2.172379   -1.595661   -1.579805
H     -1.086582    3.894153    0.215812
H      0.495934    3.500427    0.927344
H      0.376865    3.667591   -0.879538
H      3.617359    0.724252    0.751913
H      3.545137    0.405393   -1.062202
H      1.793483    1.890909   -1.243746
H      2.219908    2.466009    0.440217
H     -0.975756    0.193702    1.999616
H     -2.704778    0.031704    1.708706
H     -1.229779    0.601217   -1.735349
H     -1.942711    2.287264   -1.670831
H     -0.351729   -1.949338   -1.094427
H      0.342311   -2.249607    0.487775
H      2.079952   -0.900881    1.262126
H     -2.466398    2.178454    0.747908
H      0.839859    0.921556    1.447809
H      0.831628   -0.948460   -2.201682
