38

C     -3.560063   -0.058607    0.745347
C     -3.796525    0.603463   -1.577836
C      1.016404    2.404445    1.490010
C      0.534960   -2.293531    0.737469
C      3.253664    0.002153   -0.442120
C      2.956804    1.079178    0.573793
C      2.530652   -1.246800   -0.106838
C     -0.801132    0.277864    0.823024
C     -2.938501    0.287640   -0.365932
C      1.484983    1.132169    0.855470
C     -1.472809    0.387350   -0.527103
C      0.668440    0.170773    0.554712
C     -0.874576   -0.479376   -1.564349
C      0.357504   -1.131082   -1.402098
C      1.066849   -1.091178   -0.069238
O     -0.943833   -1.849223   -1.333302
H     -4.657325   -0.103830    0.747390
H     -3.028968   -0.292636    1.645116
H     -3.377396    1.530154   -2.039222
H     -4.814873    0.862056   -1.243759
H     -3.813686   -0.238521   -2.282823
H      1.855216    3.008732    1.887594
H      0.350596    2.220298    2.356692
H      0.500766    3.062097    0.735716
H      1.123519   -3.162289    0.375823
H     -0.514548   -2.494992    0.517847
H      0.759885   -2.174227    1.810682
H      4.352365   -0.210664   -0.416401
H      3.038789    0.330488   -1.477116
H      3.464242    0.868925    1.525142
H      3.280437    2.038034    0.185942
H      2.851395   -1.518140    0.947356
H      2.888383   -2.096526   -0.729269
H     -1.088919    1.064584    1.502905
H     -1.144382   -0.702848    1.267958
H     -1.289266    1.459724   -0.846754
H     -1.168333   -0.177644   -2.614002
H      0.949284   -1.468011   -2.247826
