48

C     -3.189140   -2.088538    1.069739
C      1.615784   -2.648344   -1.543076
C     -3.552839   -1.023925    0.106149
C      4.993518    0.189429    1.183397
C      5.119659   -1.130469    0.807549
C     -3.114264    2.109264   -1.012876
C      3.855851    0.871569    0.813778
C      4.108912   -1.719992    0.078652
C     -0.316529   -0.139936   -1.718420
C      1.051638    2.113022   -0.244430
C     -2.954828    0.830828   -1.302791
C     -1.344228   -0.987583   -1.055498
C     -2.101315    2.764608   -0.139917
C      0.009137    2.161277    0.866952
C     -1.816045    0.581710    0.822066
C      2.852450    0.271011    0.085046
C      1.635594    0.757463   -0.391750
C      2.973258   -1.028173   -0.286665
C      1.032252   -0.263350   -1.050918
C     -2.405849   -0.169655   -0.351598
N      1.856091   -1.323113   -0.972813
N     -1.225672    1.765510    0.337468
H     -3.455605   -1.792992    2.124006
H     -2.142309   -2.387727    1.090071
H     -3.781843   -3.035640    0.902956
H      2.570795   -3.156201   -1.762240
H      1.043916   -3.296703   -0.860184
H      1.102208   -2.502833   -2.532233
H     -4.105988   -1.468503   -0.745480
H     -4.283287   -0.335197    0.607447
H      5.771681    0.680474    1.757028
H      6.021585   -1.680128    1.097607
H     -3.972051    2.661340   -1.409714
H      3.754308    1.920171    1.111664
H      4.238595   -2.754929   -0.199885
H     -0.580377    0.933331   -1.795934
H     -0.190914   -0.479794   -2.789898
H      0.600071    2.472480   -1.179785
H      1.831612    2.844101    0.044062
H     -3.237083    0.473289   -2.286032
H     -0.844760   -1.595013   -0.276348
H     -1.877420   -1.608530   -1.808739
H     -2.575173    3.345005    0.677474
H     -1.561897    3.495101   -0.796845
H      0.019062    3.152460    1.366956
H      0.347001    1.428039    1.646490
H     -2.680751    0.817148    1.502306
H     -1.094809   -0.021360    1.398005
