28

C      3.233906    0.114667   -0.119511
C     -2.083369   -0.692678   -1.487232
C      1.231302    0.477672    1.301416
C     -0.184784    0.285951    1.660376
C      0.103969   -1.779484    0.432708
C     -1.278224    1.441919   -0.690546
C      1.832839   -0.109649    0.270329
C     -0.882592   -0.626936    0.668864
C      1.029941   -1.077966   -0.567165
C     -0.942201   -0.020143   -0.708174
O     -2.458999    1.638537   -0.004346
O      0.217628   -0.318282   -1.368939
H      3.708436   -0.857914   -0.422222
H      3.775188    0.561116    0.746112
H      3.320941    0.834000   -0.945678
H     -1.798623   -1.748304   -1.662030
H     -2.986951   -0.583496   -0.872691
H     -2.180416   -0.142668   -2.447054
H      1.831586    1.140834    1.913740
H     -0.207574   -0.256589    2.640655
H     -0.729757    1.230479    1.822889
H      0.677443   -1.974171    1.355590
H     -0.383425   -2.648750   -0.002014
H     -1.459418    1.751824   -1.745189
H     -0.482691    2.081940   -0.273762
H     -1.842197   -0.976419    1.049316
H      1.668716   -1.781134   -1.099179
H     -2.730675    0.851996    0.553736
