38

C      3.481089   -0.522386   -1.232808
C      3.962591    1.153788    0.486133
C     -0.572589   -2.654956    1.139447
C     -1.785993    0.505606   -1.863122
C     -3.299381   -0.008612    0.623085
C     -2.650369   -1.186959    1.239247
C     -2.334024    1.138852    0.445276
C      0.779499   -0.818912   -0.488176
C      3.042542    0.216098   -0.245701
C     -1.279895   -1.381615    0.731492
C      1.632397    0.206940    0.239285
C     -0.609108   -0.564033   -0.024225
C      1.095660    1.580852    0.087338
C     -0.186219    1.833802   -0.443328
C     -1.194137    0.736817   -0.491930
O      0.862994    1.869598   -1.351636
H      4.508974   -0.505507   -1.576972
H      2.792162   -1.188353   -1.737792
H      3.893126    2.186187    0.093512
H      5.029746    0.839020    0.319214
H      3.726304    1.062274    1.554849
H      0.320883   -2.346541    1.720174
H     -1.234443   -3.312487    1.708540
H     -0.268845   -3.218395    0.227560
H     -2.867841    0.771515   -1.894521
H     -1.730878   -0.562493   -2.171201
H     -1.282915    1.110958   -2.645430
H     -3.810789   -0.214846   -0.338936
H     -4.094283    0.357325    1.317052
H     -3.235365   -2.119910    1.083183
H     -2.643470   -1.022310    2.354831
H     -1.866186    1.360157    1.421948
H     -2.811163    2.036255    0.051787
H      1.122961   -1.837473   -0.332727
H      0.852095   -0.631005   -1.600557
H      1.648717   -0.139803    1.306289
H      1.638390    2.419010    0.585607
H     -0.632236    2.851541   -0.296787
