28

C      3.168487    1.004171   -0.720974
C     -2.049065    1.081485    0.579208
C      1.871006   -1.000349   -0.288828
C      0.512249   -1.649691   -0.084036
C      0.336821    0.333089    1.383016
C     -2.129433   -0.688012   -1.159167
C      1.959345    0.306573   -0.318338
C     -0.427886   -0.816042    0.701452
C      0.752525    1.057668    0.083468
C     -1.244615    0.054500   -0.226723
O     -3.081696   -1.375035   -0.378159
O     -0.244372    0.782883   -0.850414
H      3.039509    1.682019   -1.593853
H      3.557324    1.664337    0.110382
H      4.029663    0.327782   -0.944751
H     -2.420489    0.664242    1.522303
H     -1.488976    2.025511    0.723925
H     -2.928222    1.330117   -0.060990
H      2.753497   -1.644834   -0.408176
H      0.193518   -1.911592   -1.111753
H      0.693710   -2.625232    0.419272
H     -0.312857    0.952337    1.998048
H      1.204261   -0.027244    1.941483
H     -2.733843    0.036976   -1.754446
H     -1.637663   -1.435228   -1.777784
H     -1.044288   -1.363746    1.429417
H      0.922218    2.119775    0.252059
H     -3.250725   -0.886460    0.471403
