38

C     -2.242756    1.835962    1.523934
C     -3.159217    0.668604    1.462147
C     -0.815972    1.323098    1.762904
C     -3.072169   -0.129871   -0.917783
C     -1.997360   -0.903956   -1.670924
C      2.563293   -1.346624   -0.442168
C      1.979840    0.772092    1.151517
C      0.216496   -1.668848   -1.102122
C      5.543550    0.336615    0.761317
C     -2.762079   -0.412995    0.530337
C      1.238729   -0.944796   -0.348048
C     -0.451975    0.540039    0.549067
C      0.960790    0.145132    0.475600
C      3.579614   -0.710863    0.240315
C      3.300815    0.367455    1.054529
C     -1.284521   -0.719601    0.527939
N     -1.120640   -1.466120   -0.680935
O      4.963604   -0.893291    0.331765
O      4.503933    0.818298    1.621206
H     -2.521781    2.444772    2.418800
H     -2.227485    2.469119    0.634295
H     -4.166576    1.052303    1.125896
H     -3.329493    0.285193    2.486324
H     -0.875765    0.701252    2.684821
H     -0.194675    2.221627    1.893126
H     -4.072673   -0.484700   -1.210669
H     -3.002502    0.941547   -1.168148
H     -2.454937   -1.740637   -2.237630
H     -1.462992   -0.243752   -2.387460
H      2.843447   -2.188982   -1.067486
H      1.751166    1.608079    1.780625
H      0.444861   -2.769869   -0.988431
H      0.360605   -1.483442   -2.206158
H      5.605389    0.988162   -0.115550
H      6.487644    0.193120    1.293655
H     -3.309987   -1.341581    0.799328
H     -0.743761    1.129917   -0.344157
H     -1.074458   -1.392459    1.383912
