70

C     -2.396819    1.853499    1.455777
C     -3.276844    1.613271   -0.707521
C      2.499560    2.782656    1.802198
C      3.574490    1.463819    0.201823
C     -2.159132   -5.140988   -0.480633
C      1.939361   -2.089931   -2.989538
C     -3.312910   -3.335516   -1.456070
C      1.958617    0.280848   -2.844587
C     -2.810077    1.017545    0.459151
C      2.397827    1.846768    0.795359
C     -3.139639   -4.695101   -1.333558
C      2.333058   -0.880342   -3.506173
C     -1.361776   -4.279422    0.235132
C      1.171188   -2.189543   -1.817812
C     -2.433487    3.233444    1.328281
C     -3.321488    2.984570   -0.854068
C      3.700716    3.318128    2.207438
C      4.806584    1.989122    0.590946
C     -2.528276   -2.460251   -0.746742
C      1.211677    0.215252   -1.701575
C     -1.549620   -2.935571    0.093950
C      0.809712   -1.047469   -1.183456
C     -0.709411   -1.886343    0.762290
C     -0.018548   -0.888918    0.004170
C     -2.894520    3.796945    0.176342
C      4.861375    2.910145    1.588270
C     -1.894385   -1.102134    1.495927
C      0.970107   -0.080228    0.926972
C     -2.786421   -0.440818    0.529031
C      1.062742    1.329378    0.444535
O     -3.903139   -5.597141   -2.025399
O      3.088948   -0.798748   -4.662921
O     -0.401110   -4.795651    1.071450
O      0.820438   -3.445109   -1.358755
O     -2.001218    4.010451    2.372603
O     -3.783918    3.605054   -2.010473
O      3.730157    4.247631    3.217848
O      5.988780    1.591978   -0.019519
O     -2.940746    5.196969    0.023392
O      6.081417    3.433695    1.977001
O     -2.546570   -2.151659    2.197664
O      0.595330   -0.149079    2.226823
O     -2.661445   -1.042658   -0.804488
O      0.818224    1.381547   -0.992518
H     -2.021228    1.435640    2.406087
H     -3.623941    1.009581   -1.543340
H      1.607161    3.140657    2.326665
H      3.601978    0.738737   -0.583860
H     -1.990720   -6.224360   -0.353144
H      2.205281   -3.036505   -3.466318
H     -4.083203   -2.922994   -2.131329
H      2.271126    1.258881   -3.258437
H     -0.175513   -2.330759    1.603572
H     -0.749376   -0.043754   -0.239971
H     -1.513596   -0.440697    2.247766
H      1.944682   -0.632879    0.803934
H     -3.848745   -0.714714    0.848050
H      0.323840    1.993479    0.886190
H     -4.773356   -6.001912   -1.713081
H      3.383032   -1.602092   -5.174860
H      0.207895   -4.225678    1.611277
H      1.087216   -4.283570   -1.827141
H     -1.654050    3.627282    3.240548
H     -4.115499    3.047537   -2.815425
H      4.611975    4.628388    3.502051
H      6.017489    0.911512   -0.765700
H     -2.644573    5.822521    0.734580
H      6.936019    3.144840    1.533419
H     -3.192851   -1.713682    2.786867
H      0.600145    0.744445    2.653036
