44

C     -4.254760   -1.452076   -0.093570
C     -4.918678   -0.206257    0.423370
C     -2.777774   -1.505454    0.182377
C     -4.277931    1.051308   -0.063712
C      4.109353    0.387943    1.001002
C      4.086999   -0.215994   -1.266071
C      5.502822    0.458798    0.944649
C      5.464957   -0.146131   -1.322902
C      1.373729   -1.096760    0.816865
C      1.243371    1.256279    0.317039
C     -0.070435   -0.876780    1.073121
C     -0.180927    1.146617   -0.208392
C      3.381028    0.047675   -0.110477
C      1.921380   -0.045519   -0.122311
C      6.184909    0.191808   -0.218308
C     -2.181910   -0.105873    0.239785
C     -2.959026    0.681479   -0.767042
I      8.290019    0.288831   -0.339930
N     -0.760149   -0.130997    0.056371
O     -2.352762    1.775214   -1.304945
H     -4.514970   -1.565814   -1.166758
H     -4.716793   -2.307405    0.455635
H     -5.965900   -0.218812    0.046505
H     -5.008307   -0.232174    1.544749
H     -2.318880   -2.089305   -0.641760
H     -2.612093   -1.963824    1.173150
H     -4.924221    1.668090   -0.714155
H     -3.957163    1.640248    0.833785
H      3.597030    0.598908    1.913144
H      3.541631   -0.485168   -2.151357
H      6.064985    0.727834    1.827194
H      6.013997   -0.358182   -2.247395
H      1.926111   -1.120884    1.774125
H      1.507168   -2.114029    0.351421
H      1.181727    1.231664    1.418605
H      1.705531    2.140036   -0.109539
H     -0.575280   -1.860549    1.163000
H     -0.173410   -0.383012    2.056409
H     -0.721854    1.964445    0.298637
H     -0.106282    1.355338   -1.291418
H      1.558681   -0.337553   -1.142164
H     -2.385291    0.279085    1.261398
H     -3.305288    0.010522   -1.610917
H     -2.635345    1.916426   -2.235909
