38

C     -2.042365    2.248968    1.035379
C     -2.814096    0.970094    1.101143
C     -0.711483    2.081692    0.285403
C     -3.244566   -1.239480    0.178499
C     -2.261031   -2.186966   -0.447758
C      2.494242   -1.523274   -0.603526
C      2.060341    1.125217   -0.066189
C      0.073334   -1.986358   -0.220958
C      5.585398    0.457037   -0.529795
C     -2.733305    0.148133   -0.146297
C      1.234807   -1.062217   -0.284018
C     -0.390451    0.635739    0.317589
C      0.981537    0.270212   -0.007009
C      3.555664   -0.612284   -0.649775
C      3.333540    0.717098   -0.379236
C     -1.331904   -0.063031   -0.632937
N     -1.102720   -1.442633   -0.807691
O      4.915827   -0.736723   -0.930733
O      4.544698    1.423783   -0.489118
H     -2.608975    3.110463    0.684924
H     -1.729797    2.491018    2.093349
H     -3.899736    1.251843    1.235721
H     -2.578253    0.377093    2.031293
H      0.035548    2.755034    0.707781
H     -0.953245    2.366021   -0.774712
H     -3.335096   -1.402583    1.275630
H     -4.267200   -1.322180   -0.238970
H     -2.023930   -3.050547    0.234650
H     -2.771458   -2.652763   -1.322795
H      2.677578   -2.559191   -0.816316
H      1.896661    2.151082    0.141062
H      0.359792   -2.906093   -0.790237
H     -0.099440   -2.334248    0.829443
H      6.022667    0.376640    0.475789
H      6.323844    0.788390   -1.278550
H     -3.349275    0.643041   -0.927046
H     -0.633784    0.242424    1.339382
H     -1.213370    0.449548   -1.623369
