44

C     -4.167516    0.711942   -1.263180
C     -4.965290    0.562736    0.023232
C     -3.026840   -0.283380   -1.315839
C     -3.998871    0.834703    1.155604
C      4.159689   -1.018581   -0.157044
C      3.960289    1.282168    0.220885
C      5.541346   -0.889104   -0.086438
C      5.329410    1.429474    0.293981
C      1.344149   -0.463463   -1.395385
C      1.311721   -0.956618    0.926978
C     -0.114036   -0.141841   -1.375984
C     -0.176046   -0.713128    0.980262
C      3.346144    0.062830   -0.004927
C      1.886889    0.037334   -0.061037
C      6.141585    0.342291    0.140899
C     -2.119769    0.010352   -0.129665
C     -2.935795   -0.278910    1.064239
I      8.247172    0.541837    0.248984
N     -0.842810   -0.608021   -0.243636
O     -2.356205   -0.353385    2.280659
H     -4.855020    0.589418   -2.134430
H     -3.752244    1.746329   -1.285640
H     -5.307813   -0.476211    0.076013
H     -5.784589    1.309157   -0.023227
H     -2.543364   -0.180385   -2.278187
H     -3.478653   -1.297498   -1.198873
H     -3.454891    1.787059    0.886844
H     -4.468652    0.871355    2.137009
H      3.680390   -1.984081   -0.335883
H      3.379031    2.204719    0.355104
H      6.177838   -1.740388   -0.206593
H      5.805901    2.402542    0.473643
H      1.799942    0.036625   -2.254587
H      1.522190   -1.553073   -1.492410
H      1.733411   -0.868775    1.932176
H      1.498950   -1.968757    0.512949
H     -0.183566    0.973892   -1.461117
H     -0.561022   -0.639340   -2.284539
H     -0.266993    0.247577    1.537786
H     -0.569259   -1.592466    1.542863
H      1.440670    1.040246    0.089272
H     -1.950469    1.126445   -0.168448
H     -3.534230   -1.204889    0.864330
H     -2.892775   -0.938735    2.881293
