39

C     -0.678288    2.622095    1.155506
C      3.943752    0.636085   -0.098166
C     -1.272184   -1.862014    0.664976
C     -3.213821    0.559402   -0.493138
C     -2.689786    1.044819    0.828628
C      1.087745   -1.729820   -0.817116
C     -2.452571   -0.587714   -1.082092
C     -0.239296   -1.493402   -1.506807
C     -1.221647    1.331857    0.643602
C      2.976116   -0.468325    0.235716
C      1.773237   -0.411977   -0.692230
C     -0.490304    0.411621    0.028603
C      0.950827    0.697542   -0.153144
C      2.297095   -0.062727    1.519674
C     -1.130174   -0.833370   -0.440864
O      2.466278   -0.582988    2.655398
O      1.469992    0.987823    1.151281
H      0.158469    3.000806    0.506932
H     -0.399575    2.573433    2.214302
H     -1.460725    3.433309    1.082067
H      4.604013    0.402024   -0.938618
H      3.320898    1.525368   -0.381736
H      4.489286    0.941713    0.826707
H     -2.364625   -1.981581    0.894101
H     -0.929557   -2.871517    0.356580
H     -0.690955   -1.592369    1.570470
H     -4.296792    0.316288   -0.368301
H     -3.159998    1.412432   -1.200938
H     -2.865450    0.359313    1.661374
H     -3.217960    1.993264    1.059945
H      1.717862   -2.375894   -1.475406
H      0.983132   -2.169395    0.182379
H     -3.092300   -1.499173   -1.001885
H     -2.304547   -0.434469   -2.189523
H     -0.699408   -2.445514   -1.815089
H     -0.072558   -0.792090   -2.353730
H      3.426730   -1.459189    0.300845
H      2.199601   -0.169125   -1.706862
H      1.077486    1.573458   -0.823438
