100

C      3.119366   -1.811532   -2.294432
C     -3.825964    2.872031    0.505064
C     -5.534991    1.639401    1.757879
C     -4.923077    3.922695    2.398483
C     -1.189557   -4.118868   -1.101645
C     -1.133845   -5.572373    1.504156
C      1.330458   -5.427020   -0.150393
C     -3.773734    1.069442    4.453589
C     -2.223350    3.609582    3.692194
C      3.309281   -2.004375   -0.999867
C     -6.723914   -1.339048   -0.705300
C      6.740972   -0.251342   -0.840159
C     -5.799064   -1.134795   -1.684421
C     -6.273848   -1.612153    0.590460
C      6.278388   -0.534466   -2.096196
C      6.632687    1.010266   -0.334198
C      2.312414   -2.010379    0.057346
C     -4.449962   -1.195501   -1.408870
C     -4.929141   -1.664723    0.829430
C      5.695711    0.501037   -2.842719
C      6.048758    2.034662   -1.088556
C     -2.577125   -1.566648    0.182857
C      2.463227    1.371735   -2.001533
C     -1.383312   -1.673539    0.461737
C      1.356248    0.718152   -1.631220
C      1.686939    0.998135    1.740883
C      2.284575    0.592183    0.641281
C      5.934652    3.038406   -4.342476
C      0.249731   -0.908658    2.054012
C     -0.633150    1.406769    2.486039
C     -3.955743   -1.460051   -0.157613
C      5.576933    1.765433   -2.360349
C      4.996298    2.877265   -3.128455
C      0.976607   -1.327121   -0.218374
C      2.580904    1.934557   -3.351761
C      3.834538    3.267559   -5.078371
C     -4.390165    2.580160    1.889279
C      0.277733    0.529053    1.637072
C      1.211064    0.149427   -0.294792
C      0.025623   -1.804633    0.812505
N      3.740268    2.617450   -3.779710
O      1.623489    1.812747   -4.153164
O      2.884101    3.405428   -5.879294
O      5.119835    3.705457   -5.292564
O     -1.941722    1.064504    2.187964
O      0.023810    0.710298    0.294616
O      0.271860   -3.091407    1.300726
Si    -0.137354   -4.395413    0.371397
Si    -3.059158    2.039048    3.058794
H      3.933571   -1.823453   -3.024769
H      2.132671   -1.659810   -2.662597
H     -3.260468    2.044926    0.075031
H     -4.723541    3.041581   -0.146572
H     -3.264160    3.842289    0.503990
H     -5.424714    0.710988    2.329005
H     -5.695283    1.315775    0.693479
H     -6.501605    2.152364    2.039555
H     -5.273828    3.808842    3.438323
H     -5.754850    4.208720    1.710635
H     -4.115595    4.657552    2.284628
H     -2.280962   -4.255895   -0.830041
H     -1.021357   -3.218419   -1.683155
H     -1.023675   -4.971900   -1.826775
H     -1.985235   -4.985940    1.894321
H     -0.482297   -5.967489    2.283207
H     -1.527116   -6.419584    0.896490
H      0.927164   -6.222616   -0.837606
H      2.020308   -4.838068   -0.822597
H      1.882079   -5.853721    0.700648
H     -4.683505    0.524074    4.152373
H     -3.070148    0.311574    4.872921
H     -4.035556    1.809450    5.258059
H     -3.045171    4.274179    4.027652
H     -1.551611    3.345527    4.510881
H     -1.636281    4.008717    2.848713
H      4.384779   -2.186995   -0.737751
H     -7.801512   -1.304181   -0.874766
H      7.209846   -1.038221   -0.215203
H     -6.130367   -0.919332   -2.683477
H     -7.034797   -1.763020    1.344612
H      6.354981   -1.525453   -2.508988
H      6.986619    1.273009    0.646234
H      2.822341   -1.355596    0.900210
H      2.192542   -2.949785    0.627324
H     -3.723411   -1.029622   -2.216665
H     -4.599101   -1.864179    1.831215
H      5.343723    0.245437   -3.823454
H      5.975411    3.021189   -0.657794
H      3.239294    1.456817   -1.271640
H      0.549977    0.607208   -2.323444
H      2.115992    1.562257    2.562250
H      3.362342    0.607741    0.533078
H      6.821020    3.625375   -4.119853
H      6.174208    2.047447   -4.765452
H     -0.544842   -1.175906    2.772366
H      1.206056   -1.280906    2.490140
H     -0.469711    1.087265    3.557653
H     -0.392636    2.460054    2.420751
H      5.038292    3.829092   -2.600055
H      0.651829   -1.608195   -1.264420
