84

C      2.691773   -0.996369    0.576868
C      1.708846    1.804089   -0.273441
C     -2.808434    0.451848   -0.497111
C     -1.334008    0.743728    1.465342
C      0.274241   -1.598370    0.484050
C     -0.761685   -0.735692   -1.586727
C      1.248525   -0.474990    0.655089
C      1.026425    0.479477   -0.509261
C     -1.016613   -1.210329   -0.145432
C     -0.391862    0.599868   -0.912591
C     -1.413376    0.222491    0.098623
C     -1.844505    1.537908   -0.189099
C      2.361393    0.405118    0.889344
C      1.020923    1.168404   -1.050061
C      0.274944   -1.249316    1.285948
C     -0.336462   -1.454954   -1.081496
C     -1.444222    0.226347    0.411905
C      0.811445   -1.210862   -0.153452
C     -0.093059    0.225316    1.044989
C     -1.629621   -0.857427   -0.612868
C      1.054379    0.253978    0.102618
B     -2.639232   -1.994720   -0.094462
C     -0.865124    1.464923   -0.553745
C      0.487921    2.734943    1.077006
C     -0.103746   -2.334737   -1.557374
C     -1.340363   -1.748387    0.315782
C      0.804395    0.286801    0.929856
C      0.891961   -0.921758    0.031648
C      0.447715    1.538112    0.155436
N     -0.360732   -1.203280   -0.644574
H      2.938098   -1.341410   -0.431323
H      2.783973   -1.763915    1.363696
H      3.328750   -0.129989    0.905611
H      2.528153    2.007370   -0.993529
H      2.206218    1.779770    0.735001
H      1.010209    2.667384   -0.359193
H     -3.486861    0.926266    0.252934
H     -3.285149   -0.473979   -0.814102
H     -2.766461    1.162463   -1.350358
H     -0.619119    1.607498    1.600426
H     -2.319203    1.173712    1.821445
H     -1.124002   -0.054491    2.237158
H      0.096386   -2.162174    1.422587
H      0.766944   -2.345140   -0.207341
H      0.069879   -1.229643   -2.086197
H     -1.716017   -0.658116   -2.156979
H      1.194494    0.036113    1.624405
H      1.579567   -0.001813   -1.371595
H     -1.789408   -1.967260   -0.047541
H     -0.620281    1.481604   -1.500515
H     -1.631033    1.581136   -1.297743
H     -1.480401    2.420115    0.346522
H     -2.972210    1.598703   -0.142272
H      3.136205   -0.257888    0.462175
H      2.209205    0.289217    1.964308
H      2.725896    1.456426    0.724427
H      0.630151    2.187882   -0.771788
H      2.084804    1.375376   -1.372879
H      0.527781    0.773847   -1.964169
H      1.061536   -1.406558    2.021927
H     -0.577838   -1.907162    1.434854
H     -0.081017   -1.165600   -2.133363
H     -0.486649   -2.565713   -1.126519
H     -2.180605    0.009583    1.242958
H      1.676908   -1.838227   -0.341068
H     -0.038579    0.848887    1.935312
H     -2.140137   -0.449817   -1.536048
H     -1.705391    1.094233    0.056300
H     -1.143289    2.531235   -0.801936
H     -0.783549    0.951492   -1.543552
H     -0.504016    2.928883    1.508494
H      0.763540    3.636738    0.493625
H      1.272542    2.636961    1.864102
H      0.626157   -2.999197   -1.071918
H      0.267540   -1.872597   -2.495221
H     -1.082382   -2.832482   -1.684915
H     -1.210472   -2.866541    0.409525
H     -2.335442   -1.558585   -0.139445
H     -1.225662   -1.301288    1.320005
H      1.819008    0.445307    1.342175
H      0.102173    0.201558    1.755127
H      1.148289   -1.832864    0.600803
H      1.651939   -0.716578   -0.740854
H      1.231927    1.737108   -0.626352
