84

C     -2.666417    1.098058   -0.218982
C     -1.588545   -1.738610   -1.004971
C      1.477819    0.203643   -1.570756
C      2.795304   -0.577089    0.383321
C     -0.348030    1.606264    0.311243
C      0.561006   -0.242942    1.713199
C     -1.213974    0.700285   -0.522443
C     -1.016525   -0.717936   -0.052810
C      0.892957    0.949313    0.798746
C      0.373207   -1.013351    0.391256
C      1.429875   -0.109259   -0.137186
C      2.438128    0.507968    0.695808
C     -2.044669   -0.361965    1.471909
C     -0.817318    1.598691    0.604495
C     -0.492927   -1.730245   -0.212729
C     -0.266024    0.117849   -1.883043
C      1.453470   -0.318994   -0.102524
C     -1.150379   -0.484301   -0.830994
C      0.254866   -0.719003    0.673622
C      1.145460    0.307270   -1.438639
C     -0.950957    0.138648    0.525179
B      2.088037   -0.290382   -2.592215
C     -2.281295   -0.907786    0.451816
C     -2.515247    1.582392    0.344217
C      2.850654   -0.955477   -1.108240
C      2.228601    0.071622    0.974301
C     -0.311966    0.585395    0.004967
C      0.537014   -0.462281   -0.652400
C     -1.776684    0.366835   -0.154204
N      1.915451   -0.144194   -0.404763
H     -2.971855    0.761769    0.776113
H     -3.323261    0.613630   -0.997161
H     -2.745465    2.200497   -0.330359
H     -1.735678   -2.698800   -0.482667
H     -1.055335   -1.836714   -1.945223
H     -2.622857   -1.376329   -1.259544
H      0.853669   -0.415626   -2.234303
H      2.526576    0.098750   -1.981860
H      1.257713    1.299378   -1.703934
H      2.767244   -1.665392    0.580242
H      3.575860   -0.425355   -0.409194
H      3.132751    0.002011    1.252155
H     -0.919575    1.952780    1.220586
H     -0.069906    2.466381   -0.312957
H      1.441920   -0.590876    2.268965
H     -0.352320   -0.126347    2.293526
H     -1.093122    0.835427   -1.602705
H     -1.660697   -0.809503    0.875993
H      1.660897    1.617669    1.171806
H      0.636762   -2.061726    0.440390
H      1.994058    0.805746    1.673732
H      2.698083    1.390483    0.071583
H      3.366771   -0.045183    0.946517
H     -1.557559   -0.846897    2.362024
H     -2.654452    0.472284    1.862201
H     -2.730545   -1.067253    0.983322
H     -0.075266    1.976022    1.347291
H     -1.799021    2.044429    0.944197
H     -0.607857    2.115995   -0.364152
H      0.156167   -2.273474   -0.910857
H     -1.186174   -2.363550    0.335450
H     -0.348796   -0.495764   -2.801106
H     -0.686369    1.112511   -2.138329
H      2.000742   -1.279932   -0.349446
H     -2.172840   -0.628342   -1.170123
H      0.498593   -1.074352    1.665916
H      1.446778    1.391740   -1.369091
H     -1.734987   -1.770061    0.081599
H     -2.252841   -0.821975    1.572214
H     -3.373294   -1.006336    0.198191
H     -2.186309    1.858375    1.364580
H     -2.209116    2.454225   -0.319860
H     -3.626206    1.458532    0.282248
H      3.282024   -1.804283   -0.556252
H      2.361943   -1.244906   -2.072151
H      3.708320   -0.300518   -1.399180
H      3.321166    0.014772    1.091683
H      1.886490    1.091303    1.240566
H      1.746948   -0.691809    1.641719
H     -0.115465    0.681672    1.083100
H     -0.090466    1.593886   -0.464204
H      0.324980   -1.449090   -0.205247
H      0.340315   -0.527791   -1.733994
H     -2.030031    0.327500   -1.260707
