39

C      3.954471   -0.446053   -0.596007
C      1.858118   -1.775303   -0.233735
C     -2.969874   -2.193824   -0.802180
C      1.136626    2.999698   -0.674550
C     -1.018499    1.956982   -0.995167
C     -1.713385   -1.973190    1.304084
C     -2.111060    1.096770   -0.391105
C     -0.578195   -1.093715    1.651735
C      1.917835    0.648424    0.237870
C      2.502168   -0.440558   -0.159937
C     -2.454312   -1.226977    0.261794
C      0.031537    2.235064    0.036935
C     -1.454478   -0.288556   -0.291563
C     -0.391938   -0.111843    0.762524
C      0.578914    0.985735    0.707576
H      4.563659   -0.854671    0.235953
H      4.102065   -1.116730   -1.465304
H      4.316803    0.555411   -0.819773
H      1.862811   -2.250650    0.788628
H      2.487457   -2.502198   -0.832699
H      0.884144   -1.806746   -0.708439
H     -3.520376   -3.002603   -0.285064
H     -2.059205   -2.606488   -1.292624
H     -3.609301   -1.682839   -1.526583
H      1.810098    3.504871    0.049447
H      1.673776    2.371097   -1.401071
H      0.637667    3.818103   -1.241946
H     -1.429946    2.913767   -1.324401
H     -0.561555    1.382710   -1.836572
H     -2.396803   -2.090016    2.186385
H     -1.381700   -2.957989    0.919857
H     -3.026732    1.077937   -0.978283
H     -2.264187    1.431013    0.660695
H      0.074799   -1.199361    2.542570
H      2.608347    1.549540    0.215696
H     -3.343264   -0.685275    0.697897
H     -0.418034    2.946215    0.760216
H     -1.054968   -0.535528   -1.275295
H      0.756516    1.367775    1.783676
