89

C      8.316989    0.601544    0.640321
C      7.810832   -0.953356   -1.675788
C     -5.830823    2.488347   -0.380288
C      4.615172    3.200344    2.042841
C      4.172349   -3.374798    1.425022
C     -3.872721   -0.421807    2.112521
C      0.798405   -0.066203    1.462748
C     -7.730093    0.517030   -1.416102
C     -8.087505   -0.219111    0.852234
C      6.968873    0.470060    0.057038
C     -1.245983   -1.972436   -1.040965
C      0.231304   -2.185439   -0.708051
C     -5.454945   -1.099199   -0.229195
C     -4.175886   -1.907953   -0.132871
C     -1.692052    1.197368    0.998488
C     -3.166005    1.475960    0.649926
C      0.949678    1.535388   -0.439071
C      6.683274   -0.241772   -1.019253
C     -6.232865    1.232567    0.338150
C      3.877470    2.905123    0.789646
C      3.608612   -2.773147    0.189159
C     -1.793003   -1.051313    0.017099
C     -5.259395    0.120009    0.245075
C     -3.204516   -0.770030   -0.276678
C     -1.085862    0.309679   -0.031830
C      0.902324   -0.841573   -0.911834
C      2.425284    1.554319   -0.620643
C      3.003995    0.345829   -1.293459
C      2.390371   -0.957090   -0.951239
C      5.318980   -0.332995   -1.551314
C     -3.866321    0.180391    0.724131
C      0.392920    0.210041    0.029339
N      4.407338    0.299125   -0.941678
N     -7.566428    0.809005   -0.024144
O      3.952689    3.729819   -0.173915
O      3.720582   -3.352617   -0.929089
O      5.007677   -1.068899   -2.668596
O      3.101834    1.773457    0.600260
O      2.941673   -1.566181    0.196273
H      8.508393    1.624629    1.052481
H      9.123750    0.373661   -0.081341
H      8.442800   -0.093717    1.509625
H      8.428807   -0.152622   -2.163884
H      7.397210   -1.595463   -2.455757
H      8.398791   -1.499575   -0.910653
H     -5.255065    3.124176    0.295521
H     -5.367875    2.300155   -1.369635
H     -6.800311    3.053359   -0.545931
H      4.936463    2.277292    2.529695
H      3.997466    3.859028    2.653421
H      5.521689    3.787794    1.756234
H      4.618623   -4.367909    1.154732
H      4.986258   -2.743288    1.859733
H      3.364477   -3.529388    2.149785
H     -2.992208   -1.009740    2.354307
H     -4.769789   -1.049759    2.289423
H     -3.931136    0.413127    2.856240
H      0.371532   -1.033972    1.750668
H      0.395439    0.777860    2.077878
H      1.901926   -0.022987    1.606906
H     -8.270480   -0.436564   -1.523332
H     -8.363489    1.296209   -1.915447
H     -6.743015    0.447235   -1.907697
H     -8.625543   -0.990327    0.263212
H     -7.254329   -0.660250    1.442007
H     -8.771388    0.231460    1.630870
H      6.153818    1.006238    0.562035
H     -1.314155   -1.589125   -2.057875
H     -1.734751   -2.956049   -0.900273
H      0.381926   -2.604454    0.290569
H      0.660573   -2.869064   -1.469598
H     -6.365725   -1.491265   -0.622079
H     -4.087386   -2.629381   -0.946317
H     -4.165837   -2.369929    0.857577
H     -1.191238    2.154823    1.113824
H     -1.747023    0.613628    1.961616
H     -3.513735    2.106586    1.519078
H     -3.264106    1.942607   -0.321324
H      0.378962    1.815228   -1.343466
H      0.689782    2.286206    0.337309
H     -6.344141    1.562547    1.427879
H     -1.559931   -1.486523    0.987446
H     -3.309884   -0.335819   -1.268347
H     -1.356431    0.739901   -1.036486
H      0.585497   -0.508652   -1.944831
H      2.659079    2.417719   -1.280814
H      2.962679    0.477823   -2.412415
H      2.623865   -1.665407   -1.802338
H      4.274949   -0.797546   -3.311119
