39

C      3.446265    2.711039    0.770059
C      3.538636    0.514321    1.663300
C     -3.929584   -0.494611   -0.417586
C      1.797385   -1.663545   -0.313576
C     -0.277172   -1.637862    0.978048
C     -2.226016    0.140037   -2.139485
C     -1.566387   -0.950835    0.884831
C     -0.748123   -0.185154   -1.858959
C      1.577542    1.434677    0.186854
C      2.825062    1.507337    0.870778
C     -2.804551    0.408870   -0.777405
C      0.979806   -0.845426    0.698441
C     -1.652992    0.368521    0.221062
C     -0.496843    0.697052   -0.700161
C      0.733954    0.437228    0.079682
H      3.036719    3.535567    0.217860
H      4.387741    2.814009    1.275520
H      3.131592    0.354326    2.697304
H      3.796381   -0.426466    1.157257
H      4.595979    0.914340    1.933178
H     -4.877619   -0.021997   -0.811392
H     -4.043599   -0.528701    0.673293
H     -3.898111   -1.490688   -0.903905
H      1.150355   -2.447138   -0.802227
H      2.302145   -1.023102   -1.038887
H      2.532798   -2.253771    0.267810
H     -0.192621   -2.110764    1.988697
H     -0.284726   -2.507052    0.289815
H     -2.715258   -0.688307   -2.672588
H     -2.215093    1.071331   -2.741720
H     -2.013565   -0.799400    1.918006
H     -2.343668   -1.621659    0.405919
H     -0.706622   -1.257743   -1.695945
H     -0.134366    0.042238   -2.752449
H      1.279715    2.404928   -0.347021
H     -3.193133    1.467546   -0.749350
H      1.560542   -0.838888    1.621952
H     -1.718599    1.225952    0.930474
H     -0.633971    1.743790   -1.007484
