39

C      4.029611   -0.138448    0.869282
C     -3.698243   -0.292359    0.800743
C      1.727407    1.612464   -1.036732
C      2.079418   -1.084182   -1.044436
C     -1.522047   -1.090684   -0.705413
C      2.831545   -0.487523    1.239939
C     -2.549190    1.610658   -0.302685
C     -1.117230    1.984823   -0.387337
C      0.676449   -1.495265    0.878965
C     -0.537320   -0.876125    1.538457
C     -2.490362    0.582604    0.858023
C      1.157835    0.887570    0.159680
C     -0.331570    0.979692    0.050964
C      1.637616   -0.505624    0.304539
C     -1.229169   -0.128881    0.428796
H      4.351277    0.176141   -0.103377
H      4.831741   -0.159325    1.627456
H     -3.407153   -1.362280    0.831048
H     -4.298641   -0.148165   -0.133565
H     -4.349598   -0.036831    1.670100
H      1.937386    2.688812   -0.806556
H      0.987573    1.643862   -1.886783
H      2.639331    1.181316   -1.443245
H      3.141976   -0.969032   -1.243313
H      1.724428   -2.124316   -1.189903
H      1.535275   -0.486239   -1.831375
H     -0.757537   -1.102804   -1.490936
H     -2.520267   -0.825534   -1.162682
H     -1.649602   -2.099811   -0.270003
H      2.629771   -0.783561    2.259656
H     -3.104313    2.474554    0.102346
H     -2.963768    1.161958   -1.198998
H     -0.710251    2.925851   -0.745639
H      0.328922   -2.251502    0.120625
H      1.144304   -2.133878    1.675244
H     -0.200765   -0.199489    2.339680
H     -1.171220   -1.676695    1.913508
H     -2.304565    1.073391    1.812911
H      1.520945    1.474857    1.054437
