60

C     -7.953659    0.029848   -1.482770
C      6.473557    0.530488   -3.014372
C     -6.744710   -0.783347   -1.913034
C      6.485480   -0.936154   -2.614965
C     -5.636907   -0.610536   -0.901765
C      6.587599   -0.993598   -1.115479
C     -4.440967   -1.423924   -1.342338
C      5.444878   -0.294837   -0.422547
C     -3.314804   -1.250413   -0.319087
C      4.149193   -0.940851   -0.804955
C     -2.965389    0.167085   -0.252839
C      2.965676   -0.263726   -0.117472
C     -3.048423    0.929877    0.820657
C      3.103204   -0.363673    1.357010
C     -3.513471    0.424486    2.093939
C      1.913804    0.287844    2.041703
C     -2.638419    0.460825    3.253838
C      1.769040    1.753765    1.708567
C     -1.425778    0.934336    3.220528
C      0.560937    2.248415    2.469448
C     -0.724609    1.498732    2.076010
O     -0.505193    2.831372    1.860152
H     -8.503298    0.309180   -2.391637
H     -7.583688    0.937191   -0.936012
H     -8.540447   -0.602808   -0.786866
H      7.100663    0.623990   -3.942612
H      5.435776    0.805154   -3.235205
H      6.865560    1.164110   -2.202715
H     -7.036837   -1.838448   -2.028350
H     -6.383300   -0.368395   -2.869628
H      5.558055   -1.423922   -2.960787
H      7.376591   -1.438181   -3.066110
H     -6.004044   -0.919596    0.099677
H     -5.393170    0.470030   -0.832216
H      7.535303   -0.531547   -0.755946
H      6.632664   -2.077314   -0.799137
H     -4.127330   -1.040892   -2.334310
H     -4.757144   -2.480637   -1.419621
H      5.488748    0.779098   -0.747455
H      5.592062   -0.288707    0.684640
H     -3.522107   -1.790073    0.585136
H     -2.434579   -1.769444   -0.830618
H      4.168565   -2.001269   -0.501123
H      3.988739   -0.820870   -1.917556
H     -2.597643    0.638520   -1.192328
H      2.982277    0.820955   -0.416982
H      2.037463   -0.754812   -0.447513
H     -2.760249    2.017095    0.726371
H      3.179076   -1.417671    1.683328
H      3.992236    0.153820    1.777798
H     -4.500642    0.983683    2.324907
H     -3.895585   -0.626440    1.992526
H      2.093935    0.139673    3.143544
H      0.982950   -0.279097    1.831873
H     -3.003179    0.069194    4.230409
H      2.675955    2.303719    1.960794
H      1.580628    1.821115    0.605007
H     -0.869983    0.894717    4.183809
H      0.742016    2.471806    3.519243
H     -0.637078    0.831057    1.194612
