27

C     -2.811979   -0.655361   -0.943736
C     -3.761250    0.188668   -0.122547
C      1.771192   -0.640678   -0.978136
C      1.200375    0.267047    1.137714
C     -0.519662   -0.952417   -0.159847
C      3.414886    0.528899    0.269976
C      0.834530   -0.432020    0.008622
C      3.072264   -0.167720   -0.868783
C      2.489042    0.753546    1.281044
C     -1.457337    0.013604   -0.838022
C     -2.821137    0.893646    0.789592
O      4.044271   -0.356003   -1.837982
O      2.809063    1.450247    2.434007
O     -2.994872    1.182481    2.001321
O     -1.695845    1.162124   -0.013430
H     -3.190919   -0.622369   -2.006897
H     -2.792374   -1.710268   -0.608704
H     -4.457506   -0.440625    0.485550
H     -4.356259    0.889495   -0.741701
H      1.520540   -1.188618   -1.885554
H      0.442392    0.413745    1.893218
H     -0.915361   -1.242850    0.821001
H     -0.475242   -1.860876   -0.793434
H      4.419658    0.912301    0.389626
H     -1.117592    0.304685   -1.829731
H      4.671166   -1.148538   -1.865855
H      2.677958    2.457854    2.447930
