29

C     -4.327441    0.439142    0.935312
C      0.207872   -1.680888   -1.713335
C      3.754062    0.894626    0.755642
C      2.641939    0.954246    1.571878
C      3.699893    0.150238   -0.402239
C      1.488415    0.267373    1.218586
C      2.545365   -0.521067   -0.729929
C     -2.365800    1.544099   -0.129168
C     -3.072275    0.427387    0.558361
C      0.172831   -1.207966   -0.293313
C      1.403682   -0.484822    0.067997
C     -1.264025    0.810924   -0.807249
C     -2.127404   -0.660428    0.731227
N     -1.019163   -0.405291   -0.119495
O     -0.675842    1.250490   -1.830729
O     -2.234017   -1.672110    1.492285
H     -4.745682   -0.422763    1.427309
H     -4.953212    1.300099    0.761378
H      0.548923   -0.876665   -2.421903
H     -0.813255   -2.024600   -1.984999
H      0.931428   -2.498418   -1.808176
H      4.685590    1.420463    0.994716
H      2.682274    1.544410    2.491544
H      4.542943    0.061241   -1.091187
H      0.640194    0.336095    1.878388
H      2.478556   -1.117630   -1.642719
H     -1.919562    2.223321    0.603149
H     -3.010021    2.049677   -0.876786
H      0.103732   -2.101185    0.363459
