65

C      9.335872    0.559048    1.845409
C     -3.101536   -1.469887    3.926223
C      8.367494    1.390566    1.012419
C      7.844396    0.625300   -0.097763
C      6.575616    0.351679   -0.291597
C      5.563186    0.800085    0.608400
C     -5.317359    0.125484    1.394954
C     -5.112762    0.716379    0.254267
C     -4.967264    2.310097   -3.447606
C      0.735048   -1.813018   -1.454459
C     -4.321762    0.128837    2.464919
C     -3.864214    1.425998   -0.029450
C     -4.904223    2.103916   -2.091494
C      0.182323   -1.816648   -0.080103
C     -3.869015    1.993309   -4.214967
C      4.295918    0.539186    0.431053
C      1.812437   -1.108683   -1.715540
C     -1.699474   -1.358451    1.385430
C     -3.861121   -1.303836    2.648121
C     -3.752266    1.587124   -1.523789
C     -1.270181   -1.298829   -0.071177
C     -2.726720    1.479559   -3.639556
C     -3.129863   -1.807022    1.425347
C      3.733800   -0.209859   -0.651518
C     -2.629719    1.256250   -2.252950
C     -1.391360    0.716614   -1.674336
N      2.409513   -0.371907   -0.659768
O     -1.670545    1.190429   -4.484385
O     -3.184132   -3.179879    1.420234
O      4.407187   -0.794859   -1.705556
O     -0.358476    1.203260   -2.303536
O     -1.348614   -0.130049   -0.671644
H      9.931334    1.265329    2.444854
H      8.739522   -0.101672    2.487271
H     10.029347    0.028508    1.158371
H     -3.612059   -2.186519    4.633657
H     -2.090255   -1.878835    3.762296
H     -3.098558   -0.495841    4.482011
H      9.037646    2.199713    0.569387
H      7.658260    1.931420    1.639813
H      8.562059    0.230452   -0.856340
H      6.315042   -0.248129   -1.190910
H      5.872293    1.393437    1.500230
H     -6.263574   -0.403143    1.591895
H     -5.911308    0.655806   -0.477741
H     -5.872069    2.715614   -3.896381
H      0.276878   -2.371868   -2.244935
H     -3.514556    0.847045    2.389349
H     -4.869829    0.382467    3.422493
H     -4.016673    2.488023    0.343111
H     -2.973040    1.082698    0.446644
H     -5.789978    2.371178   -1.514675
H      0.815403   -1.224989    0.578993
H      0.190025   -2.903509    0.231461
H     -3.955734    2.168616   -5.281267
H      3.598062    0.937379    1.192252
H      2.280637   -1.054736   -2.702901
H     -1.550456   -0.333496    1.774505
H     -1.019210   -2.004078    1.953582
H     -4.790841   -1.930835    2.728993
H     -1.816277   -2.186316   -0.516616
H     -3.656432   -1.403820    0.542857
H     -1.774626    1.361137   -5.467941
H     -3.649184   -3.480576    0.605893
H      4.135966   -1.690655   -2.085791
