128

C     -4.197269    3.804701    0.255082
C    -12.720825   -1.876248   -1.555523
C     -2.446450   -1.954106   -2.348126
C     -3.650600   -3.038563    0.997376
C    -11.441147    0.759814    0.535642
C      6.724287    0.383109    3.014095
C     12.420961    0.867333   -1.286910
C     13.597632    0.101364   -0.791274
C      8.390172    1.601747   -2.814062
C     11.331524    1.082741   -0.561052
C      9.793017    1.305066   -2.454120
C     13.321884   -0.355467    0.605781
C     -1.726111    0.317413   -1.634944
C      7.495998    1.560458   -1.812084
C     -0.289169    0.036997   -1.244946
C      8.292818   -0.262284   -0.317253
C      7.114504   -0.773500    0.492437
C    -11.138255   -1.691096    0.376640
C     -6.282515    2.914427    1.343809
C      4.677713   -0.634513    2.145846
C      2.956628    0.630383   -0.316926
C     -4.422469    1.388612    0.467600
C     -4.303567   -0.859664    1.673692
C     -8.223303   -1.119753   -0.264806
C    -10.308689   -1.479732   -1.992470
C     -4.748782    2.745485    1.148648
C    -11.289249   -2.082942   -1.049478
C     -2.607191   -0.836059   -1.288014
C     -3.386116   -1.667230    0.919794
C    -10.448509   -0.391500    0.621479
C      5.616644    0.510880    1.984879
C     10.197213    1.850911   -1.111898
C      4.044932   -1.101770    0.877285
C      4.217692   -0.246509   -0.312476
C     -6.726546    1.616428    1.041427
C      2.240521    0.113347    0.863512
C     -7.327770   -0.546368    0.778382
C     14.476297   -1.131546    1.153235
C     -2.237889   -1.366752    0.063141
C     -7.956510    0.863031    1.062644
C      0.786935    0.315066    0.972597
C      8.047657    1.219011   -0.466056
C     -5.097032    0.194292    1.064488
C     -9.343019   -0.110389   -0.353927
C     -0.105027   -0.520252    0.123872
C      6.242453    0.428257    0.615917
N     -9.895796   -0.147326   -1.674423
O     15.478206   -1.297604    0.440015
O     14.357093   -1.623038    2.434615
O      0.474216    1.664508    0.853246
O      0.205357   -1.877982    0.171525
O      2.637573   -1.221041    0.979901
O      9.176764    1.975197   -0.212327
O     -5.981961    0.822759    1.970472
O     -6.071787   -0.357130    0.152243
O      5.356632    0.496615   -0.411146
O     -8.757736    1.113396   -0.031585
O     -1.387988   -0.464487    0.752742
O      7.113462    1.531180    0.521842
H     -3.963384    3.438719   -0.772354
H     -4.845794    4.696882    0.235802
H     -3.208907    4.139944    0.669312
H    -13.166617   -0.954005   -1.180401
H    -12.700510   -1.961397   -2.664304
H    -13.380733   -2.728210   -1.218740
H     -2.133436   -1.556102   -3.310853
H     -3.402783   -2.495051   -2.484991
H     -1.705880   -2.691259   -1.984651
H     -3.051068   -3.746714    0.489034
H     -4.476466   -3.338425    1.586883
H    -10.951807    1.693177    0.901187
H    -12.319008    0.566313    1.185355
H    -11.721182    0.951161   -0.519894
H      7.721175    0.546582    2.590153
H      6.597013    1.132491    3.849963
H      6.733476   -0.657837    3.431791
H     12.433534    1.283065   -2.297567
H     14.448121    0.815440   -0.773801
H     13.765806   -0.746525   -1.473054
H      8.079343    1.837751   -3.802650
H     11.302378    0.681317    0.440542
H     10.432316    1.794563   -3.244738
H     10.035494    0.209308   -2.560103
H     13.121995    0.447428    1.311797
H     12.412627   -1.013009    0.575569
H     -1.714148    0.405630   -2.760471
H     -2.107170    1.246223   -1.223128
H      6.474924    1.766659   -2.019905
H      0.224343    1.046965   -1.315817
H      0.140231   -0.599006   -2.046221
H      9.255571   -0.514663    0.149447
H      8.195467   -0.722576   -1.334377
H      7.437405   -1.197947    1.462402
H      6.566347   -1.568748   -0.038392
H    -12.172725   -1.614912    0.816996
H    -10.637558   -2.485506    0.982182
H     -6.445840    3.245523    2.395177
H     -6.609292    3.776306    0.701700
H      3.930513   -0.454220    2.974204
H      5.284482   -1.496436    2.554649
H      2.510845    0.500198   -1.295006
H      3.246069    1.710353   -0.238936
H     -4.464180    1.490629   -0.615824
H     -3.346723    1.275185    0.736681
H     -3.756944   -0.370200    2.556668
H     -5.039276   -1.543568    2.218722
H     -7.735512   -1.303791   -1.234225
H     -8.681754   -2.052090    0.167555
H     -9.448511   -2.172954   -2.159209
H    -10.816209   -1.425485   -3.000952
H     -4.261919    2.745737    2.143344
H    -11.145104   -3.203764   -1.095770
H     -3.663255   -0.546129   -1.395261
H    -10.104154   -0.406130    1.684840
H      5.148569    1.500783    2.155144
H     10.594161    2.894873   -1.287915
H      4.360932   -2.163628    0.629396
H      4.215653   -0.920186   -1.221700
H     -6.404386    1.488283   -0.041470
H      2.699646    0.623612    1.765524
H     -7.252771   -1.118938    1.708494
H     -1.641092   -2.321557   -0.106868
H     -8.499395    0.789670    2.011423
H      0.535954    0.089409    2.069965
H     -9.191847    0.154430   -2.359259
H     15.149432   -2.109047    2.869973
H      0.599955    2.163245    1.706251
H      0.246056   -2.127517    1.120501
