128

C     -6.743831   -2.763046    0.791781
C    -12.141081   -0.131835   -0.392970
C     -2.235183   -3.102392    1.392245
C     -2.781996    0.961135    1.556229
C    -10.342560    4.272801    0.417447
C      6.645955   -1.758547    1.994431
C     11.968208   -0.163508    0.036987
C     12.430230    1.143206    0.569011
C     10.456358   -2.453922   -2.109427
C     11.227769   -0.939287    0.777541
C     11.285421   -2.764781   -0.935156
C     11.914136    2.239122   -0.340668
C     -0.589329   -1.454092    2.112429
C      9.252074   -1.969510   -1.961634
C      0.370205   -0.641630    1.238726
C      8.634712   -0.226448   -0.418831
C      7.204108    0.149715   -0.606607
C    -11.587803    2.282267   -0.174371
C     -6.988986   -0.545439    1.880910
C      4.915602   -0.121162    1.163319
C      3.323248   -0.671287   -2.152701
C     -5.720077   -0.849890   -0.314266
C     -3.895767    0.924940   -0.588500
C     -7.941089    2.967695   -1.060570
C    -10.540725    0.987603   -1.948479
C     -6.017367   -1.464453    1.065860
C    -11.810906    1.144396   -1.130849
C     -1.926625   -1.594717    1.522762
C     -3.003172    0.283799    0.432459
C    -10.385654    3.112338   -0.559782
C      5.772904   -1.310739    0.873839
C     10.707580   -2.269459    0.348050
C      3.943191    0.005236    0.007133
C      4.544118   -0.217764   -1.336440
C     -6.996931    0.596928    1.047325
C      2.420881   -1.228054   -1.071183
C     -6.784383    2.448648   -0.232101
C     12.338592    3.589246    0.143990
C     -2.235835   -0.971585    0.223839
C     -7.510513    1.933981    1.048231
C      1.109083   -0.545312   -1.154083
C      8.654339   -1.706035   -0.598714
C     -5.303607    0.578159   -0.303788
C     -9.119220    2.270328   -0.464695
C      0.079108   -1.106477   -0.167031
C      6.477221   -1.132186   -0.450807
N     -9.423988    0.985447   -1.010277
O     12.138183    3.944211    1.334642
O     12.971786    4.483614   -0.721291
O      1.099392    0.813703   -1.045110
O      0.095612   -2.485987   -0.224607
O      3.055625   -1.035859    0.122784
O      9.343464   -2.349527    0.397089
O     -5.623171    0.928782    1.043567
O     -6.220285    1.423920   -0.977867
O      5.482963   -1.210770   -1.422277
O     -8.832654    2.173690    0.887743
O     -1.128673   -0.557921   -0.515676
O      7.358927   -2.168129   -0.627630
H     -6.521762   -3.478848    1.612672
H     -7.827461   -2.497763    0.715151
H     -6.467454   -3.145140   -0.217439
H    -11.913844   -0.031025    0.709337
H    -13.222251   -0.397567   -0.442108
H    -11.557127   -0.990999   -0.752718
H     -1.340397   -3.680689    1.689269
H     -3.032179   -3.424139    2.081291
H     -2.437116   -3.373133    0.340646
H     -3.246454    1.928488    1.683729
H     -2.149250    0.587936    2.327372
H     -9.644111    5.063462    0.127496
H    -10.238682    3.902974    1.453110
H    -11.365641    4.744616    0.365017
H      7.015026   -2.781834    1.768170
H      5.952110   -1.919884    2.873952
H      7.403363   -1.059211    2.338607
H     12.253329   -0.444524   -0.957735
H     12.066230    1.324526    1.597870
H     13.552334    1.155566    0.515107
H     10.848975   -2.629319   -3.096932
H     10.963171   -0.607141    1.775439
H     11.352109   -3.892040   -0.880094
H     12.345499   -2.450653   -1.049595
H     10.786315    2.202966   -0.336987
H     12.239454    2.051334   -1.370276
H     -0.091037   -2.463106    2.179617
H     -0.602054   -1.045933    3.151750
H      8.615196   -1.731516   -2.807792
H      1.369842   -0.834549    1.611322
H      0.049454    0.416784    1.353165
H      9.281954    0.296894   -1.184169
H      9.008660    0.119081    0.550440
H      7.099717    0.546012   -1.661408
H      6.877919    0.978934    0.052843
H    -12.482295    2.923433   -0.199793
H    -11.510091    1.878795    0.848234
H     -6.460973   -0.349892    2.860549
H     -7.939010   -1.058059    2.025498
H      4.271098   -0.401012    2.049766
H      5.426295    0.795827    1.439451
H      2.860363    0.161172   -2.698442
H      3.612423   -1.446486   -2.905632
H     -6.551419   -1.090866   -1.032907
H     -4.890516   -1.455400   -0.713699
H     -3.795432    2.023356   -0.517545
H     -3.592833    0.638780   -1.616189
H     -8.060905    4.064155   -0.970464
H     -7.873781    2.658310   -2.126360
H    -10.579024   -0.044018   -2.391042
H    -10.470952    1.751808   -2.723248
H     -5.076839   -1.590721    1.612446
H    -12.660414    1.350428   -1.830812
H     -2.688020   -1.272877    2.306887
H    -10.548121    3.489932   -1.584362
H      5.050497   -2.165930    0.696432
H     11.080346   -2.976588    1.152497
H      3.490308    1.004851    0.037556
H      4.856663    0.728352   -1.837807
H     -7.417896    0.204539    0.084315
H      2.234898   -2.320071   -1.256202
H     -6.054498    3.231795    0.030279
H     -2.787891   -1.646377   -0.436319
H     -7.116058    2.548959    1.885778
H      0.668610   -0.806273   -2.159571
H     -9.774242    0.390269   -0.197571
H     13.566962    5.208313   -0.290117
H      0.714577    1.251514   -1.822543
H     -0.315251   -2.853741   -1.045343
