110

C     -1.780900   -2.181532   -2.874621
C      0.450987   -2.623606   -2.274743
C      0.150755   -2.474837    4.780639
C     -0.029193   -0.195877    4.221826
C      5.853492   -1.429400   -1.061984
C      4.044335   -1.871651   -2.477722
C     -4.417698    1.155495   -1.019016
C     -5.573901    2.748939    0.270637
C     -1.768060   -3.164217   -3.823620
C      0.496884   -3.631751   -3.233655
C      0.044329   -2.176301    6.114138
C     -0.139371    0.132592    5.569777
C      6.364327   -2.687982   -1.298700
C      4.541099   -3.147111   -2.730895
C     -5.628110    0.706287   -1.581100
C     -6.757626    2.318923   -0.270592
C      1.891221    2.548582   -0.180842
C      2.661714    2.742177   -2.375622
C      1.941602    4.694161   -1.247466
C     -1.341613    2.876186   -1.351779
C     -2.333786   -1.073343    2.874567
C     -0.435851    1.891480   -3.334890
C     -3.732707    0.733883    3.407159
C      3.710215   -0.335496    2.082001
C     -0.679446   -1.878196   -2.071965
C      0.115913   -1.495499    3.820109
C      4.677436   -0.985526   -1.645653
C     -4.347119    2.157767   -0.104750
C      2.395298    1.935431   -1.296134
C     -0.616851   -3.896268   -4.004235
C     -0.101199   -0.867647    6.507161
C      5.695970   -3.541563   -2.138730
C     -6.807393    1.299678   -1.197649
C      1.658370    3.917984   -0.134877
C      2.444034    4.094273   -2.364756
C     -0.900885    2.992079   -2.662392
C     -3.327353   -0.554196    3.671182
C     -1.325043    1.661072   -0.694279
C     -1.708053   -0.407664    1.829571
C     -0.416231    0.654161   -2.667587
C      2.655819   -0.974875    2.636861
C     -3.129636    1.416401    2.372995
C      3.619497    0.103453    0.765135
C     -0.699669   -0.854534   -1.003707
C      0.279000   -1.841923    2.419660
C      2.645871    0.474220   -1.289389
C     -0.849826    0.530882   -1.369465
C     -2.133395    0.902074    1.564176
C     -0.747225   -1.427232    1.428762
C     -1.895909    1.985115    0.585313
C      1.532967   -1.171601    1.887164
C      2.473838   -0.112932    0.046341
C      0.065932   -1.236838    0.193482
C      1.346630   -0.775897    0.574076
C      4.208686    0.367749   -1.374593
C     -3.180496    2.712777    0.540460
O     -0.623278   -4.887475   -4.970340
O     -0.208557   -0.589998    7.882903
O      6.177375   -4.831785   -2.410097
O     -7.983123    0.832767   -1.771049
O      1.146018    4.565835    0.989891
O      2.732001    4.841718   -3.478949
O     -0.923319    4.226279   -3.316411
O     -3.908157   -1.300227    4.710708
O      0.058538   -0.389254   -3.409568
O      2.775884   -1.404098    3.962403
O     -3.435473    2.741572    1.991151
O      4.539314    0.770011   -0.024580
H     -2.664104   -1.591450   -2.708248
H      1.333543   -2.449340   -1.700953
H      0.266660   -3.536571    4.497464
H     -0.062847    0.637366    3.542022
H      6.423374   -0.795098   -0.389025
H      3.128205   -1.645111   -3.004210
H     -3.521255    0.685563   -1.322773
H     -5.589219    3.554772    0.995789
H     -2.661218   -3.350022   -4.416114
H      1.377664   -4.225765   -3.404523
H      0.077275   -2.977459    6.834534
H     -0.253546    1.162575    5.881516
H      7.273678   -3.027155   -0.845513
H      3.999392   -3.826472   -3.407107
H     -5.590911   -0.108714   -2.310899
H     -7.720445    2.749608   -0.005283
H      1.661199    1.975188    0.692968
H      3.055640    2.295533   -3.261206
H      1.761293    5.780240   -1.225788
H     -1.677455    3.813696   -0.904831
H     -2.082841   -2.123293    3.123135
H     -0.085711    1.952649   -4.364209
H     -4.520144    1.152293    4.039854
H      4.627980   -0.152799    2.634295
H     -1.795530   -1.077907   -0.591777
H      0.469869   -2.944671    2.271241
H      2.321958   -0.084528   -2.135439
H     -1.420656   -2.347411    1.201941
H     -1.160178    2.703976    1.086706
H      0.284437   -2.367309   -0.043003
H      4.610155    1.158617   -2.015874
H     -3.129603    3.804444    0.320675
H     -0.877311   -5.836850   -4.831783
H     -0.179090   -1.327960    8.558913
H      6.812458   -4.896092   -3.220264
H     -8.516455    0.064007   -1.336032
H      0.155594    4.675632    1.097871
H      3.630591    5.261710   -3.632310
H     -0.612155    4.315809   -4.252075
H     -4.629492   -0.836399    5.242293
H      0.375868   -0.274175   -4.348735
H      3.594436   -1.254794    4.494910
