63

C     -2.018259   -0.056789    2.709804
C     -4.418742   -0.106460    3.099334
C      5.167571    2.311893   -0.986400
C      7.379313    1.772452    0.061090
C     -6.455411   -0.440614   -1.569203
C     -4.547859    1.183238   -1.284200
C      2.869303    0.612212    1.479466
C     -1.680205   -1.286403   -2.188624
C      1.570972    0.332008    1.088861
C     -0.387984   -0.999164   -1.779133
C      6.071029   -0.647670    0.503381
C      4.714526   -0.422735   -1.561958
C     -4.638295   -2.152582   -0.455048
C     -3.311230   -0.696161    2.252052
C      6.030226   -0.088339   -0.904238
C      3.896255    0.363999    0.609761
C     -2.714855   -1.038323   -1.317263
C      5.317425    0.623614    0.920739
C     -4.137265   -1.303125   -1.634855
C     -4.818589   -0.828679    0.259998
C      1.276162   -0.190878   -0.151939
C     -0.108966   -0.476552   -0.535310
C      3.593005   -0.158780   -0.628801
C     -3.562067   -0.262065    0.827883
C     -2.431933   -0.515920   -0.075076
C      5.991296    1.303193   -0.256644
C     -5.048470   -0.218131   -1.114931
N      2.301731   -0.425007   -0.986011
N     -1.139782   -0.245864    0.291397
H     -2.052450    0.165541    3.815758
H     -1.843449    0.921345    2.234597
H     -1.166469   -0.767373    2.607135
H     -4.049166    0.638752    3.826959
H     -4.970087   -0.941378    3.610548
H     -5.183733    0.409998    2.484567
H      4.090690    2.247398   -0.818041
H      5.555925    3.327923   -0.682981
H      5.445304    2.243318   -2.079057
H      7.901401    1.144298    0.793521
H      7.996186    1.743571   -0.884361
H      7.382180    2.832022    0.381710
H     -7.091407   -0.748459   -0.722568
H     -6.909513    0.503668   -1.963684
H     -6.532133   -1.257038   -2.335864
H     -4.904967    1.815806   -0.432632
H     -5.084247    1.607340   -2.183342
H     -3.470066    1.272894   -1.436697
H      3.112171    1.023648    2.453190
H     -1.913694   -1.696437   -3.160984
H      0.745507    0.521923    1.763849
H      0.441635   -1.191995   -2.462537
H      5.440783   -1.567834    0.626603
H      7.090044   -0.723769    0.906176
H      4.730380   -1.510614   -1.782212
H      4.538004    0.186007   -2.472387
H     -5.624945   -2.614693   -0.642704
H     -3.889905   -2.822743   -0.029122
H     -3.284768   -1.796035    2.356759
H      6.924572   -0.271735   -1.508017
H      5.557525    1.003014    1.906216
H     -4.361146   -1.715338   -2.612990
H     -5.711997   -0.788050    0.920570
H     -3.667067    0.862654    0.879549
