72

C      3.478216   -0.734613    3.997605
C     -3.722340   -3.549971    1.227557
C      4.019446   -1.929796   -2.428960
C      6.479858   -1.581804   -1.934998
C     -3.898858    2.961869    1.368618
C     -6.373464    2.634914    1.175456
C      3.754623   -1.294614    2.618694
C     -3.953707   -2.099258    1.577296
C      3.123810   -0.421348    1.558318
C     -3.263520   -1.227838    0.548090
C      2.917779    1.598576   -2.591143
C     -2.745109    2.522289   -2.000122
C      1.546371    1.830530   -2.457663
C     -1.384173    2.304538   -2.147231
C      5.416914    0.392099   -0.301606
C     -5.452981    0.621420   -0.590669
C      3.365422   -0.928238    0.171780
C     -3.445740    0.233315    0.823657
C      3.478698    0.693018   -1.717656
C     -3.412923    1.844566   -1.029638
C      4.808419   -1.013033   -0.186857
C     -4.870129    0.669708    0.829586
C      4.923755    0.357665   -1.754555
C     -4.867462    1.989198   -0.770401
C      0.778277    1.200729   -1.513162
C     -0.675235    1.435671   -1.358923
C      2.713691    0.054030   -0.763532
C     -2.694476    0.972585   -0.240578
C      5.041662   -1.138801   -1.674611
C     -5.005480    2.176130    0.743189
N      1.402775    0.322747   -0.689733
N     -1.366224    0.780656   -0.407717
H      4.367687   -0.886682    4.674105
H      3.342920    0.362213    3.878554
H      2.566810   -1.189382    4.449731
H     -4.675047   -4.044753    0.895981
H     -3.263090   -4.114192    2.073456
H     -3.018821   -3.626627    0.373374
H      4.518478   -2.275815   -3.379770
H      3.129245   -1.377744   -2.726305
H      3.802288   -2.879196   -1.875447
H      6.926511   -2.021222   -1.018573
H      7.067198   -0.734850   -2.343167
H      6.490281   -2.361753   -2.742738
H     -4.311399    3.930486    1.776476
H     -3.177519    3.275336    0.566261
H     -3.408326    2.461024    2.210302
H     -6.980844    3.046424    0.356856
H     -6.258735    3.451903    1.944871
H     -6.965203    1.837575    1.672107
H      3.342605   -2.330857    2.577597
H      4.845444   -1.377233    2.509630
H     -3.540650   -1.939206    2.593742
H     -5.037300   -1.917941    1.632659
H      3.532060    0.607481    1.710514
H      2.041848   -0.353448    1.788565
H     -2.177532   -1.451753    0.625461
H     -3.595598   -1.511151   -0.470239
H      3.514313    2.089793   -3.327029
H     -3.294035    3.209378   -2.626885
H      1.100992    2.534530   -3.134014
H     -0.850360    2.841915   -2.918024
H      6.509137    0.409723   -0.200900
H      4.884789    1.168309    0.247980
H     -6.563748    0.560363   -0.611068
H     -4.934157   -0.113283   -1.245636
H      2.915892   -1.929019    0.085033
H     -3.001744    0.486978    1.802180
H      5.427537   -1.727730    0.354827
H     -5.524714    0.252194    1.594389
H      5.542035    0.881916   -2.472590
H     -5.407141    2.702186   -1.382359
