40

C     -3.596923   -0.825871   -0.088065
C     -1.448390   -0.204863    1.967751
C     -0.784756   -0.988682    1.154014
C     -1.987229    1.423163    0.135756
C      3.254776   -0.789089   -0.519873
C      1.421037    1.135158   -0.132180
C     -2.016267   -1.918396   -1.338481
C      4.828774    2.418715    0.208563
C     -1.912673    1.157561    1.596676
C      1.907398   -1.122415   -0.482124
C      0.946162   -0.146853   -0.282202
C      3.704915    0.499810   -0.366357
C      2.766304    1.483246   -0.168607
C     -1.521673    0.295997   -0.725682
C     -0.583203   -1.720910   -1.215691
C      1.553722   -2.546330   -0.715429
C     -0.450488   -0.560834   -0.204818
N     -2.595197   -0.614440   -1.072835
O     -0.954423    2.045968    2.133840
O      2.430038   -3.437155   -0.890812
O      4.952231    1.115860   -0.357875
O      3.446010    2.706781   -0.039785
O      0.178075   -2.788208   -0.717829
H     -3.925143    0.007545    0.514582
H     -3.410781   -1.759244    0.527223
H     -4.522739   -1.133510   -0.672909
H     -1.701919   -0.536641    3.006212
H     -0.484944   -1.967639    1.507177
H     -1.489486    2.374849   -0.192858
H     -3.063982    1.640137   -0.159590
H      3.974634   -1.591182   -0.678298
H      0.765773    1.961454    0.025232
H     -2.269842   -2.138119   -2.417883
H     -2.462769   -2.735766   -0.763648
H      5.050668    2.329346    1.276390
H      5.476144    3.124102   -0.332808
H     -2.851005    1.426551    2.139943
H     -1.180520    0.739397   -1.703316
H     -0.136014   -1.324748   -2.144317
H     -1.306296    2.965255    2.190914
