47

C      7.786966    0.896526   -1.096302
C     -4.115305    0.777895   -1.661913
C     -4.045678   -1.697228   -1.374271
C     -4.419396   -0.875821    1.645891
C     -3.357059    0.118713    2.134602
C     -4.950196   -0.274667    0.366693
C      5.389029    1.205032   -0.493535
C      2.255840   -0.550012    0.026112
C      6.505390    0.542450   -0.428617
C     -2.229256   -0.008385    1.174962
C      1.036097   -0.162093   -0.282969
C      4.370396    0.527419    0.300944
C     -0.243610   -0.713631    0.227068
C     -2.499153   -0.221349   -0.107582
C     -0.764641    0.064827    1.415356
C     -1.212988   -0.309963   -0.852581
C      6.314325   -0.623261    0.411952
C      0.662247    0.904755   -1.202827
C     -3.865215   -0.345287   -0.672608
O     -0.281382    1.340395    1.488817
O      7.220484   -1.481255    0.677831
O      1.486710    1.646566   -1.779564
O      3.313459    0.115821   -0.578207
O      5.012588   -0.594534    0.831551
O     -0.743074    0.922341   -1.299107
H      8.453174    1.415862   -0.376738
H      7.575793    1.554970   -1.954993
H      8.270883   -0.060866   -1.421915
H     -3.315426    1.554266   -1.560892
H     -5.089477    1.280169   -1.494587
H     -4.133290    0.408474   -2.709087
H     -4.118225   -2.495399   -0.606925
H     -4.962718   -1.675867   -1.975244
H     -3.207365   -1.900432   -2.066881
H     -3.875742   -1.811464    1.348325
H     -5.181565   -1.059786    2.401202
H     -3.074626   -0.112983    3.171262
H     -3.836701    1.120815    2.092384
H     -5.220257    0.798484    0.589213
H     -5.866895   -0.816694    0.065698
H      5.258642    2.122829   -1.060676
H      2.372063   -1.361982    0.730139
H      3.958319    1.189643    1.096864
H     -0.210089   -1.790734    0.413182
H     -0.454197   -0.481834    2.324377
H     -1.209883   -1.100683   -1.619515
H     -0.759000    2.017957    0.983990
