31

C     -1.680409   -1.489807   -1.680452
C      2.739446    0.717862   -0.582524
C     -2.691114    1.158285    0.545996
C     -1.534094    1.439311    1.412016
C     -2.372088    0.550639   -0.766136
C     -0.238809    1.177346    1.358847
C      0.771278   -1.697656   -0.552306
C      1.965229   -1.386579    0.361497
C     -1.452721   -0.576816   -0.756851
C     -0.305288   -0.873483    0.112489
C      0.446524    0.453927    0.293408
C      1.862352    0.119543    0.520467
O      2.340239    0.457634    1.781464
H     -2.510319   -1.355769   -2.371742
H     -1.071207   -2.389566   -1.792281
H      3.756161    0.950356   -0.178808
H      2.828871   -0.008949   -1.435697
H      2.260137    1.612606   -0.974694
H     -3.477480    0.538697    1.045941
H     -3.186722    2.149489    0.344001
H     -1.837905    2.002328    2.314045
H     -3.351508    0.223488   -1.222427
H     -1.972423    1.316497   -1.479085
H      0.315613    1.553586    2.202326
H      0.519640   -2.787347   -0.482235
H      0.952161   -1.406501   -1.585651
H      1.727649   -1.891358    1.325154
H      2.911580   -1.707420   -0.076472
H     -0.562426   -1.323249    1.071525
H      0.344939    1.062024   -0.647678
H      2.502695    1.410883    1.895862
