49

C     -1.933005   -2.241410    1.249257
C     -6.479768   -1.825538    0.763676
C     -3.872245    2.646158   -1.929704
C      6.686689    1.526937    1.177619
C     -0.805984    0.252022    0.586644
C     -0.177854    1.358986    0.245018
C      4.064530   -1.235030   -1.573309
C      3.064043   -1.977314   -2.004903
C     -2.801109   -1.022697    1.004053
C     -5.215779   -1.286963    1.313684
C     -3.133655    1.379011   -1.651163
C      5.569944    1.365208    0.209628
C     -2.117955   -0.157462   -0.008661
C      3.795308   -0.087746   -0.678455
C      1.131787    1.785313    0.827171
C      1.680374   -1.698798   -1.622277
C      2.278769    0.966587    0.885648
C      2.512686   -0.298296    0.125005
O     -5.121184   -0.665116    2.389465
O     -2.807209    0.645453   -2.588310
O      5.222920    2.258046   -0.603816
O      0.718040   -2.412517   -2.037225
O     -4.059896   -1.489859    0.579448
O     -2.799012    0.993661   -0.371293
O      4.867353    0.170260    0.194864
O      2.170844    2.083894   -0.091636
O      1.484626   -0.605594   -0.777225
H     -1.189561   -2.072121    2.061979
H     -2.606604   -3.053067    1.649125
H     -1.467490   -2.621116    0.322773
H     -7.325628   -1.654276    1.492004
H     -6.417731   -2.922740    0.636730
H     -6.796957   -1.299836   -0.161671
H     -4.972078    2.498709   -1.899837
H     -3.605566    3.410253   -1.150276
H     -3.514403    3.008342   -2.915912
H      6.262205    1.751341    2.181550
H      7.276047    0.588699    1.239967
H      7.331881    2.356466    0.845399
H     -0.324632   -0.372400    1.337928
H     -0.642059    1.993636   -0.501852
H      5.070762   -1.433750   -1.848682
H      3.299971   -2.814561   -2.662887
H     -2.839984   -0.483981    1.975006
H     -1.881109   -0.729387   -0.932021
H      3.617751    0.793345   -1.324794
H      1.012384    2.603498    1.566945
H      3.059506    1.166437    1.661418
H      2.730035   -1.140687    0.813903
