40

C     -2.322658   -2.660003    0.286575
C     -1.457289    2.181555   -0.761004
C     -0.894366    1.185827   -1.411868
C     -2.281182    0.656825    0.987395
C      3.174754   -0.164164   -1.047205
C      1.304636    0.339819    0.956016
C     -2.156420   -1.342188   -1.700453
C      4.714768    0.846442    2.102500
C     -1.730379    2.029418    0.690337
C      1.803666   -0.242589   -1.282250
C      0.861741    0.003015   -0.311201
C      3.597563    0.170814    0.208882
C      2.655212    0.416045    1.187034
C     -1.496021   -0.469386    0.369208
C     -0.674703   -1.262383   -1.647730
C      1.356969   -0.667630   -2.626635
C     -0.547045   -0.058440   -0.683585
N     -2.475293   -1.335141   -0.280885
O     -2.790985    2.926519    0.979831
O      2.192460   -0.890056   -3.526624
O      4.833218    0.337842    0.787260
O      3.337056    0.728842    2.350983
O     -0.036198   -0.800197   -2.820768
H     -1.379365   -2.754726    0.876458
H     -3.189612   -2.930339    0.937796
H     -2.277308   -3.446895   -0.500179
H     -1.722871    3.118337   -1.286323
H     -0.679621    1.273934   -2.499473
H     -3.326330    0.660937    0.615581
H     -2.334440    0.573626    2.093603
H      3.883480   -0.366251   -1.849688
H      0.557465    0.522085    1.701161
H     -2.605294   -0.430221   -2.127318
H     -2.559113   -2.272327   -2.145531
H      5.039529    1.900505    2.104589
H      5.323717    0.239970    2.827399
H     -0.913835    2.349090    1.339647
H     -1.009683   -1.020921    1.212847
H     -0.235141   -2.125115   -1.171211
H     -3.541082    2.777521    0.361855
