49

C     -7.215976    0.949674    0.871705
C      7.647605   -1.277962   -0.993763
C     -7.139492   -0.429091    0.274511
C     -5.681971   -0.894455    0.197063
C     -4.974789    0.108502   -0.676499
C     -3.516933   -0.212229   -0.861426
C     -2.843968   -0.214137    0.472716
C     -1.363436   -0.525617    0.394342
C     -0.610432    0.457177   -0.434278
C      0.870338    0.150284   -0.513056
C      1.491618    0.163164    0.842613
C      2.964414   -0.140035    0.865335
C      3.690662    0.888968    0.044925
C      5.878369    0.358174   -1.008312
C      7.275393    0.132686   -0.585480
C      5.158439    0.608210    0.065828
C      5.978405    0.573495    1.256627
O      5.578543    0.772748    2.436154
O      7.260880    0.280461    0.814275
H     -8.137941    1.030599    1.460047
H     -7.238024    1.712443    0.063049
H     -6.338961    1.175307    1.506657
H      6.749936   -1.925403   -1.089395
H      8.126879   -1.218555   -1.988989
H      8.305108   -1.712488   -0.228146
H     -7.743899   -1.142203    0.868669
H     -7.519036   -0.410723   -0.773899
H     -5.696745   -1.891869   -0.290266
H     -5.286064   -0.974508    1.209324
H     -5.465138    0.113113   -1.666391
H     -5.028647    1.095133   -0.170839
H     -3.035969    0.563752   -1.480226
H     -3.358963   -1.220255   -1.309988
H     -2.910955    0.793317    0.974784
H     -3.276319   -0.967732    1.187917
H     -1.201828   -1.547052   -0.054394
H     -1.014831   -0.596490    1.434943
H     -0.756921    1.481111   -0.012469
H     -1.015367    0.480795   -1.463324
H      1.314623    0.953996   -1.160309
H      1.022241   -0.808652   -1.018996
H      1.013831   -0.585897    1.505934
H      1.380907    1.201498    1.257956
H      3.275174   -0.067195    1.944999
H      3.122961   -1.168619    0.476777
H      3.468421    1.882362    0.502450
H      3.306783    0.837149   -0.988330
H      5.537826    0.317123   -2.038331
H      7.953249    0.849928   -1.084127
