54

C     -4.543238    0.654185    0.138627
C     -3.448930    0.183695    2.275683
C      1.353808   -2.793362   -1.586523
C      4.307477    0.447247   -0.783908
C     -0.387253    3.262816   -0.820660
C      2.121098   -2.131247    1.089123
C      0.674355   -2.125954    0.770563
C      3.051690   -1.470961    0.192079
C     -0.959115   -2.147894   -1.026737
C      2.688067    0.759768    1.124004
C     -2.091736   -1.722424   -0.285701
C      2.146753    1.916228    0.255408
C     -0.954316    0.887075   -1.467456
C     -3.670360   -0.352887    0.902218
C      0.296333   -2.337799   -0.636504
C      3.322573   -0.168019    0.185589
C     -2.383644   -0.506193    0.116462
C     -1.611625    0.696120   -0.154376
C      1.383947    1.348232   -0.890022
C      0.145963    1.941852   -1.252266
O     -0.854361    1.187123    0.905288
O      1.235230    1.979997   -2.099154
H     -5.613184    0.373426    0.196512
H     -4.282307    0.630724   -0.958067
H     -4.357127    1.656193    0.546860
H     -3.263641    1.259534    2.339231
H     -4.427871    0.031484    2.823233
H     -2.737222   -0.450496    2.851143
H      1.847887   -1.970245   -2.097608
H      1.987117   -3.581636   -1.164346
H      0.807680   -3.336137   -2.429168
H      4.966706   -0.345445   -1.197393
H      3.738307    0.975245   -1.570229
H      4.920909    1.146962   -0.180320
H     -0.680524    3.819130   -1.758859
H     -1.293049    3.178239   -0.211171
H      0.362718    3.915465   -0.332514
H      2.418261   -3.231150    1.121993
H      2.308924   -1.848667    2.176470
H      0.143384   -2.997013    1.307799
H      0.155317   -1.255438    1.243812
H      3.640805   -2.015854   -0.571620
H     -1.102469   -2.409468   -2.104397
H      1.819312    0.391690    1.673071
H      3.424447    1.244448    1.808934
H     -2.873622   -2.478530   -0.023528
H      3.007122    2.562614   -0.047834
H      1.543444    2.531644    0.952924
H     -0.486724    0.065224   -1.968253
H     -1.617533    1.365085   -2.252635
H     -4.257494   -1.260282    0.965261
H     -2.426535    1.512683   -0.196936
H      1.501316    0.243145   -1.015326
H     -0.997074    0.769829    1.762153
