29

C      3.978848    0.256994    0.691281
C     -2.460477    1.259544    1.579326
C      2.611078    0.385020    1.351646
C     -1.983929    1.500526    0.378630
C      1.620249    0.691876    0.271852
C     -1.479974   -1.829664   -1.171942
C      0.585121   -0.098586    0.007964
C     -2.160292   -0.945494   -0.138045
C     -0.523651   -0.968673   -1.950126
C     -1.775452    0.434573   -0.578871
C     -0.362218    0.254252   -1.070677
H      4.632666   -0.250324    1.452717
H      4.394032    1.227415    0.390297
H      3.935429   -0.416733   -0.189076
H     -2.721484    0.268909    1.919484
H     -2.619072    2.058011    2.303787
H      2.652754    1.144093    2.130740
H      2.406873   -0.600549    1.816029
H     -1.747247    2.517228    0.113159
H      1.721798    1.583589   -0.335770
H     -2.276881   -2.248551   -1.817708
H     -0.989976   -2.646135   -0.628894
H      0.433451   -1.003590    0.583139
H     -1.745195   -1.148738    0.879863
H     -3.260078   -1.072217   -0.151192
H     -0.945792   -0.678840   -2.936549
H      0.466085   -1.462248   -2.080451
H     -2.390479    0.659607   -1.488020
H      0.003812    1.128707   -1.631956
