28

C     -3.216947    1.180030   -0.008477
C     -2.365262   -0.806152    1.132911
C     -2.327906   -0.763624   -1.308635
C      3.990439    0.120979   -0.184522
C      1.554983    0.490316   -0.141687
C      2.646077   -0.580747   -0.207863
C     -0.835057    0.685179   -0.080865
C     -2.172155    0.094768   -0.074190
O      4.108389    0.805023    1.024199
O      2.443974   -1.284906   -1.371962
O     -0.685622    1.932497   -0.035421
O      0.277658   -0.111260   -0.136773
H     -3.210163    1.716199   -0.966782
H     -2.893990    1.869275    0.822188
H     -4.201963    0.773688    0.272971
H     -1.800152   -1.744099    0.969615
H     -3.456110   -1.009282    1.202965
H     -2.054818   -0.249096    2.026033
H     -1.309172   -1.187938   -1.522977
H     -2.989338   -1.610054   -1.079874
H     -2.673516   -0.160227   -2.187561
H      4.017287    0.889638   -0.983842
H      4.806900   -0.607140   -0.253940
H      1.627832    1.152791   -1.050499
H      1.719811    1.166794    0.719898
H      2.523535   -1.206987    0.698703
H      3.408280    0.504252    1.654567
H      3.067006   -2.059918   -1.434861
