53

C     -3.926264   -0.783157   -1.591635
C     -4.122120    0.059294    0.727602
C      4.471573   -1.234141   -1.400928
C     -2.830377    3.796092    2.012988
C      1.085938    2.094058    2.055139
C     -0.171729    2.661556    2.064472
C     -0.411862   -2.720109    0.444825
C      0.822536   -2.009265    0.959857
C      1.238000    0.364756   -1.969985
C      2.630880   -0.081165   -2.230171
C      2.718281    0.457387    1.073421
C      1.404417    1.111049    1.131648
C     -1.323080   -1.688683   -0.116097
C     -1.138888    2.254055    1.146217
C      2.759124   -0.683217    0.106410
C      0.423534    0.761523    0.269016
C     -0.826562    1.267286    0.216119
C     -0.852916   -0.649838   -1.029750
C      0.575036   -0.250585   -0.795833
C      1.452445   -1.323510   -0.218223
N     -2.554692   -1.733062    0.225979
N     -3.514378   -0.840699   -0.216591
N      3.450736   -0.252902   -1.086154
O      1.668774   -2.276611   -1.198546
O     -2.415792    2.794536    1.116657
O     -1.507630    0.625144   -0.814934
H     -4.017472    0.284074   -1.882894
H     -4.951949   -1.245996   -1.632749
H     -3.308128   -1.380915   -2.276826
H     -4.551602    0.961451    0.261549
H     -3.454923    0.291296    1.585290
H     -4.988046   -0.502652    1.183144
H      4.049693   -2.240692   -1.267892
H      4.789230   -1.169280   -2.481942
H      5.360688   -1.136968   -0.746470
H     -3.077018    3.386693    3.012241
H     -2.064904    4.586336    2.163966
H     -3.742836    4.266780    1.594914
H      1.876263    2.375389    2.749399
H     -0.411330    3.429803    2.790143
H     -0.904968   -3.314949    1.235262
H     -0.110919   -3.362157   -0.424859
H      1.568577   -2.707778    1.380397
H      0.459828   -1.285703    1.733485
H      1.162318    1.473971   -1.907313
H      0.627023    0.094721   -2.880955
H      2.661067   -1.000720   -2.885916
H      3.116655    0.710187   -2.874843
H      3.522742    1.175931    0.793257
H      2.993811    0.096804    2.118582
H      3.368932   -1.497217    0.612853
H     -0.970254   -0.870875   -2.108128
H      1.892536   -3.137325   -0.725201
