63

C     -2.467462   -3.838174    1.956076
C     -3.938674   -2.518323   -1.230173
C      0.280229    5.250088   -1.907515
C     -1.089213   -3.257573    1.875242
C      6.418525    0.099595   -0.656498
C      5.960846    1.268529   -1.194787
C      5.655856   -0.504645    0.335101
C      4.775800    1.858379   -0.785295
C      4.471759    0.084785    0.744227
C     -2.627341    2.511464   -0.671527
C     -1.637368    3.372365   -1.073817
C      0.330791   -0.309059    2.488082
C     -1.086107   -0.241042    2.021288
C     -0.439119   -1.382039   -1.482183
C     -1.587053   -2.344488   -1.524651
C     -3.293719    0.216403    0.162324
C     -2.305803    1.191579   -0.365042
C      4.018383    1.262812    0.196134
C      1.165445    0.326278    1.394418
C     -0.289196    3.023811   -1.204552
C     -2.673997   -1.144860    0.279872
C     -0.990816    0.864816   -0.500978
C      0.000738    1.710566   -0.894717
C      0.986942   -0.164243    0.033296
C     -0.441587   -0.479915   -0.291715
C     -1.266451   -1.127142    0.811801
N      2.783429    1.860492    0.635426
N      2.006255    1.263975    1.631643
N     -2.769088   -1.714252   -1.056154
O      0.679814    3.925540   -1.612985
O     -0.768474   -2.368584    0.962587
O      1.197148    0.955390   -0.876788
H     -2.943816   -4.064559    0.991664
H     -2.414263   -4.876806    2.455899
H     -3.136379   -3.294676    2.659270
H     -4.642715   -2.080088   -1.975290
H     -3.611672   -3.546712   -1.519729
H     -4.467241   -2.542928   -0.233425
H     -0.199913    5.647307   -0.975389
H      1.146491    5.873574   -2.210146
H     -0.509880    5.245205   -2.686831
H     -0.829637   -2.993964    2.941457
H     -0.412899   -4.173861    1.714692
H      7.346641   -0.353115   -0.984060
H      6.566705    1.741276   -1.977137
H      6.024999   -1.414603    0.744956
H      4.457993    2.794707   -1.251314
H      3.886817   -0.401851    1.521924
H     -3.660191    2.816324   -0.580607
H     -1.894686    4.411817   -1.315679
H      0.759656   -1.297190    2.620022
H      0.495159    0.289549    3.424055
H     -1.825907   -0.456781    2.817594
H     -1.270866    0.805031    1.725907
H     -0.361448   -0.764526   -2.403376
H      0.533507   -1.960748   -1.462098
H     -1.388888   -3.320951   -1.058937
H     -1.760975   -2.547771   -2.623762
H     -3.699782    0.576934    1.139050
H     -4.110381    0.186273   -0.604180
H     -3.340684   -1.787298    0.926278
H      1.723599   -0.906355   -0.216870
H      2.480166    2.744255    0.197920
