59

C     -1.940728   -3.281158   -2.662367
C      4.195592    1.703963   -0.674983
C      4.537204   -0.700344   -0.208040
C     -3.871936   -1.598324    1.826310
C      2.031977    4.990880    1.116983
C     -1.690006   -3.365826   -1.207162
C     -1.491099    2.789534    0.628629
C     -0.317312    3.531196    0.792337
C      0.571201   -0.804052   -2.349267
C     -0.829283   -0.547114   -1.830595
C     -0.174051   -1.280033    1.851806
C     -1.601897   -1.208608    2.342851
C     -2.632764    0.590429    0.320455
C     -1.423572    1.416427    0.527574
C      1.616499   -0.479979   -1.336879
C      0.905616    2.868836    0.850284
C     -2.381207   -0.845633    0.095746
C     -0.215673    0.818632    0.590887
C      0.971779    1.476163    0.747469
C      1.422022   -0.678943    0.097995
C     -0.029249   -0.646064    0.504159
C     -1.010484   -1.202573   -0.504461
N      2.726470   -0.007210   -1.769173
N      3.783684    0.334986   -0.914339
N     -2.535715   -1.560109    1.326041
O      2.076764    3.580817    1.010899
O     -0.875705   -2.534169   -0.569667
O      1.965804    0.503400    0.756517
H     -2.251752   -4.326431   -3.020163
H     -1.118667   -3.028014   -3.317560
H     -2.901266   -2.712638   -2.871249
H      4.428065    1.848238    0.408234
H      3.484373    2.446546   -1.061437
H      5.169239    1.916056   -1.200159
H      4.491405   -0.576907    0.885512
H      4.276078   -1.713791   -0.557503
H      5.611933   -0.510345   -0.485563
H     -3.856710   -1.417022    2.930631
H     -4.347078   -2.615147    1.710092
H     -4.564644   -0.881298    1.387682
H      1.432392    5.446210    0.282495
H      1.477276    5.233181    2.050203
H      3.043766    5.434104    1.085728
H     -2.704952   -3.501156   -0.732921
H     -1.246369   -4.412480   -1.042731
H     -2.413733    3.325637    0.587255
H     -0.330961    4.609580    0.875750
H      0.748928   -0.200519   -3.287172
H      0.762347   -1.847746   -2.641080
H     -1.559944   -0.816085   -2.586392
H     -0.880907    0.575228   -1.762921
H      0.436282   -0.660548    2.567307
H      0.251430   -2.295590    1.893729
H     -1.815548   -0.219105    2.819834
H     -1.690745   -1.956644    3.165275
H     -3.264955    0.762170    1.242537
H     -3.242274    1.034299   -0.511186
H     -3.162122   -1.234262   -0.608744
H      1.955183   -1.570644    0.434510
