57

C     -3.693424    2.500564    1.178414
C     -3.572355   -2.164884   -1.302549
C      4.932829   -2.490384    0.862237
C     -3.295118    2.006538   -0.166097
C      0.639208   -2.869229    1.314905
C      2.022246   -2.786125    1.193490
C     -0.286770    2.137072    1.518268
C     -1.119252    0.845725    1.568425
C     -0.456693   -0.259789   -2.014133
C     -1.452409   -1.385419   -2.040207
C     -1.622790   -1.880908    0.853225
C     -0.147695   -1.887909    0.749414
C      0.969623    1.812458    0.792162
C      2.618846   -1.718020    0.505042
C     -2.268971   -0.755525    0.144471
C      0.476006   -0.886269    0.098881
C      1.822100   -0.740596   -0.057056
C      0.865776    1.262098   -0.576859
C      3.681187    2.566337   -0.317110
C     -0.211136    0.209555   -0.596762
C     -1.458130    0.522676    0.141429
N      2.984230    3.594550   -0.632263
N      2.077145    2.043721    1.408718
N      3.298885    1.768016    0.796196
N     -2.585479   -1.158341   -1.200430
O      4.809066    2.267029   -1.095468
O      3.975600   -1.603050    0.364731
O     -2.088936    1.557652   -0.440030
O      2.009654    0.438708   -0.788709
H     -2.976254    3.076369    1.747492
H     -4.590972    3.216014    1.094691
H     -4.166690    1.660297    1.775208
H     -3.209228   -3.190993   -1.345929
H     -4.170358   -2.006236   -2.247310
H     -4.331069   -2.015955   -0.479543
H      5.079998   -3.319739    0.131709
H      4.637978   -2.876454    1.866459
H      5.898234   -1.943284    0.925013
H     -3.454936    2.912106   -0.860159
H     -4.144671    1.341331   -0.566853
H      0.188924   -3.695721    1.847631
H      2.654634   -3.546110    1.629686
H     -0.109434    2.556541    2.503995
H     -0.838069    2.874621    0.869621
H     -1.972649    0.985764    2.238738
H     -0.491181    0.065434    2.069982
H     -0.738750    0.567136   -2.697867
H      0.507352   -0.662705   -2.389833
H     -1.007442   -2.366307   -1.813048
H     -1.828432   -1.455011   -3.091581
H     -1.954659   -2.846177    0.370484
H     -1.947185   -1.989498    1.915389
H     -3.236575   -0.528505    0.648999
H      0.749573    2.025923   -1.347090
H      3.223282    4.204574   -1.433053
H      3.959162    1.020955    1.094062
H      5.346171    2.989379   -1.565183
