63

C     -0.158169   -3.058367   -2.615424
C     -3.925789   -2.663997    1.530122
C     -1.097855    5.973974    0.463039
C     -0.323007   -3.060936   -1.139543
C      7.204188    0.200680   -0.464792
C      6.749157   -0.420884    0.679251
C      6.252911    0.488196   -1.421022
C      5.427622   -0.749465    0.886685
C      4.921052    0.178294   -1.256790
C     -3.496908    2.376419    0.299698
C     -2.736328    3.559120    0.349999
C      0.123879    0.437998   -1.853794
C     -1.211452   -0.236625   -1.701283
C     -1.094488   -0.635096    2.093894
C     -1.706059   -1.987831    2.094046
C     -3.532127   -0.164945    0.380834
C     -2.876509    1.149733    0.423640
C      4.482234   -0.446892   -0.099151
C      1.081307    0.089617   -0.762576
C     -1.362978    3.525146    0.522780
C     -2.679073   -1.306476   -0.002605
C     -1.529567    1.184719    0.590968
C     -0.732153    2.296105    0.648144
C      0.627126    0.412388    0.618291
C     -0.794335   -0.065731    0.735772
C     -1.244798   -0.976888   -0.388601
N      3.109130   -0.770233    0.078254
N      2.219198   -0.446109   -0.932341
N     -2.618032   -2.271082    1.034997
O     -0.612632    4.680163    0.572681
O     -0.405546   -1.985458   -0.416685
O      0.569305    1.835556    0.827168
H      0.447876   -2.273371   -3.054989
H      0.362191   -4.015742   -2.957154
H     -1.152109   -3.171156   -3.146282
H     -4.723200   -2.179078    0.956474
H     -3.958866   -3.772103    1.511293
H     -3.953864   -2.390369    2.622830
H     -0.280152    6.632715    0.103617
H     -1.932254    6.101342   -0.254427
H     -1.359362    6.337422    1.480398
H      0.600091   -3.624265   -0.758779
H     -1.107791   -3.868960   -0.941498
H      8.255985    0.444126   -0.591761
H      7.478150   -0.661156    1.454114
H      6.575065    0.980263   -2.340702
H      5.071138   -1.241952    1.794624
H      4.192193    0.424825   -2.044811
H     -4.568248    2.383783    0.165527
H     -3.282717    4.472230    0.247276
H      0.027869    1.551237   -1.863456
H      0.579380    0.076872   -2.805253
H     -1.431007   -0.893547   -2.566688
H     -1.984952    0.557677   -1.766857
H     -1.751532    0.044381    2.674779
H     -0.128727   -0.660348    2.648439
H     -2.230452   -2.186275    3.052644
H     -0.888425   -2.739819    2.034300
H     -3.992408   -0.321691    1.401968
H     -4.432078   -0.049690   -0.293621
H     -3.122360   -1.780226   -0.906835
H      1.219129   -0.078855    1.399576
H      2.842133   -1.239363    0.969598
