53

C      1.470761    4.127607    0.096869
C      3.168766    2.574279   -0.817886
C     -4.427812   -1.226211    0.750256
C      4.981535   -1.178308    0.663290
C      1.232899   -2.921420    0.152541
C      2.471935   -2.304097    0.326600
C     -1.105435    1.250055   -2.299903
C     -1.339875   -0.224961   -2.041004
C     -1.561569    0.185856    1.703194
C     -2.404145   -0.979792    2.035606
C     -1.246107   -2.739304   -0.064429
C      0.123421   -2.128674    0.157050
C     -0.096686    1.783832   -1.337112
C      2.597543   -0.922807    0.500696
C     -2.301696   -1.714444   -0.260127
C      0.263130   -0.809202    0.326746
C      1.439789   -0.160004    0.497534
C     -0.175229    1.426896    0.095793
C     -0.873868    0.133359    0.363297
C     -1.869704   -0.327724   -0.636357
N      0.848103    2.559107   -1.751871
N      1.798293    3.064862   -0.859132
N     -3.071458   -1.613059    0.950453
O     -2.993663    0.492846   -0.549249
O      3.835534   -0.350778    0.668765
O      1.172969    1.218032    0.634185
H      2.041421    5.061738   -0.177243
H      1.834661    3.859075    1.109894
H      0.396796    4.310763    0.159467
H      3.515284    2.603654    0.239387
H      3.272062    1.561787   -1.241333
H      3.834313    3.266844   -1.409929
H     -5.070395   -1.879475    1.410493
H     -4.716760   -1.502140   -0.285228
H     -4.645563   -0.165628    0.975310
H      4.994564   -1.848131   -0.201153
H      5.099384   -1.729342    1.631324
H      5.869009   -0.482546    0.632082
H      1.155146   -3.997496    0.017989
H      3.348094   -2.956324    0.320497
H     -0.856875    1.469767   -3.335181
H     -2.073923    1.771151   -2.060714
H     -2.040177   -0.634053   -2.767660
H     -0.340931   -0.741151   -2.119259
H     -0.776093    0.296643    2.496898
H     -2.119669    1.166862    1.735811
H     -3.174803   -0.660470    2.779247
H     -1.787707   -1.752509    2.559502
H     -1.145531   -3.465705   -0.903858
H     -1.431798   -3.353573    0.841226
H     -2.991612   -2.074374   -1.060103
H     -0.610602    2.206348    0.722540
H     -3.515723    0.452338   -1.375814
