52

C      4.581256   -1.583251    0.510023
C     -9.588969    0.955467    0.856221
C      1.365310    0.882710   -1.750777
C     -5.564429   -1.635382   -0.238903
C     -4.841740   -0.583128    0.123947
C     -7.040065   -1.658611   -0.196202
C      6.909494   -0.848250    0.607536
C     -2.717002    0.456743    0.433532
C     -0.480420    1.414282    0.709229
C      7.662463    1.355410    0.161805
C     -1.367264   -1.885361   -0.476900
C      5.594133   -0.537323    0.378052
C     -8.945092   -0.309305    0.367532
C     -1.262637    0.404071    0.363596
C      7.937422    0.050798    0.510148
C     -3.385708   -0.636796    0.053582
C     -0.633341   -0.821195   -0.110082
C      6.333893    1.700316   -0.077409
C      0.975253    1.346564    0.633883
C      5.301581    0.790654    0.022092
C      0.825545   -0.879158   -0.184374
C      3.915205    1.102147   -0.215461
C      1.564969    0.399014   -0.318803
O     -9.698374   -1.271457    0.039026
O      9.265184   -0.282855    0.746594
O      6.105916    2.997722   -0.418512
O      1.664413    2.101246    1.386699
O      1.358720   -2.013712   -0.129139
O      3.518489    2.230524   -0.535262
O     -7.581935   -0.451444    0.267701
O     -2.754422   -1.773237   -0.387341
O      2.930015    0.145490   -0.098461
H      4.070678   -1.841217   -0.436694
H      3.847982   -1.431628    1.310034
H      5.103609   -2.546604    0.793181
H    -10.507447    0.677490    1.387646
H     -8.881571    1.518428    1.520466
H     -9.787280    1.564813   -0.049102
H      0.297266    0.682775   -2.032147
H      1.524045    1.976128   -1.751416
H      2.061963    0.400031   -2.456232
H     -5.042708   -2.506390   -0.578154
H     -5.379625    0.279511    0.460675
H     -7.379883   -2.539156    0.375789
H     -7.391356   -1.830891   -1.250954
H      7.193019   -1.870132    0.888385
H     -3.198328    1.352478    0.780495
H     -0.936866    2.352681    1.071395
H      8.411268    2.109664    0.066751
H     -0.905520   -2.798260   -0.829516
H      9.659337   -0.204471    1.667774
H      5.293555    3.492059   -0.633474
