78

C      3.237670   -0.190331    2.027401
C     -0.797091   -2.580528   -2.617566
C      5.819270    1.572815   -1.180719
C     -2.379159    2.768397   -3.578713
C      2.579804    4.162153    1.350346
C     -2.385618   -2.009935    3.990464
C     -0.615214    0.971568    1.887615
C     -2.797173    2.055821    1.030865
C     -3.501586    0.775673    0.839510
C      1.857421   -2.012244    1.115357
C      1.415468    0.280469   -1.039671
C     -3.836490   -1.112217   -0.744804
C      2.535398   -0.906555    0.878835
C     -0.430577   -3.381882   -1.411339
C      4.791341    0.508068   -1.238406
C     -1.901446    3.032341   -2.182159
C      1.740533    3.375758    0.403628
C     -2.364939   -2.166507    2.503133
C      2.603678   -0.358969   -0.444187
C     -1.605004    2.068439    0.093106
C      0.614458    1.243876   -0.275178
C      1.155041   -2.789372    0.153027
C     -1.410399   -0.313670   -0.154024
C     -1.197520   -1.659403    0.336141
C      0.932000   -3.875535   -1.765740
C     -0.681509    0.878368    0.381816
C     -2.932522   -0.063462   -0.253085
C     -0.290694   -2.713508   -0.085847
O      4.930902   -0.499176   -1.985595
O     -1.420229    4.139672   -1.848816
O      1.315290    3.945957   -0.597858
O     -3.209364   -2.779262    1.863732
O      1.152687   -4.830765   -2.521418
O     -0.824587   -3.787585    0.772959
O     -3.532000    0.027052   -1.503976
O      3.668089    0.609430   -0.472322
O     -1.985019    2.059276   -1.244097
O      1.404064    2.085199    0.549511
O     -1.393971   -1.630102    1.765145
O      1.776978   -3.062445   -1.095889
H      2.517406   -0.033494    2.863193
H      4.044614   -0.846779    2.438295
H      3.593449    0.788596    1.709340
H     -0.954176   -3.385420   -3.425493
H      0.035752   -2.005380   -3.068984
H     -1.763638   -2.103232   -2.581761
H      6.807356    1.145380   -1.434593
H      5.898157    1.895945   -0.103405
H      5.627578    2.414791   -1.844147
H     -1.544996    2.501606   -4.256376
H     -2.918746    3.697934   -3.921148
H     -3.113028    1.955897   -3.612845
H      2.421998    5.248103    1.215796
H      3.643343    3.888987    1.203503
H      2.294375    3.897081    2.406475
H     -1.501775   -2.487828    4.454331
H     -2.489464   -0.946767    4.285623
H     -3.276747   -2.550877    4.385372
H     -0.496477    1.991028    2.261758
H      0.196755    0.347237    2.316397
H     -1.549872    0.578806    2.286469
H     -2.490055    2.312061    2.037444
H     -3.392910    2.960222    0.685477
H     -3.787807    0.219932    1.767625
H     -4.541120    1.064903    0.458547
H      1.878769   -2.296898    2.198770
H      0.789186   -0.482198   -1.501822
H      1.861698    0.804294   -1.926303
H     -3.612546   -2.021444   -1.274529
H     -4.896002   -1.095191   -0.356884
H     -1.161118   -4.236719   -1.405677
H      2.949037   -1.121343   -1.158776
H     -1.118779    3.037673    0.302652
H      0.305330    1.963861   -1.048378
H      1.360801   -3.851462    0.587847
H     -1.137125   -0.289863   -1.256709
H     -2.158708   -2.184195    0.086704
H     -0.358496   -4.612125    0.525032
