56

C     -0.833229   -0.236411   -1.272530
C      0.508890    0.036342   -1.001785
C     -0.995061   -1.577909    0.652784
C     -7.210908    1.350220    0.159186
C     -5.079172    1.818276   -0.799898
C     -5.287906   -1.857612   -0.184204
C      6.585892   -1.135284   -0.756061
C     -1.602044   -1.039362   -0.460023
C     -6.305141    2.247868   -0.347761
C     -5.712788   -0.443302   -0.212437
C     -6.926961   -0.006337    0.233437
C      0.325497   -1.320342    0.935331
C     -3.823312   -1.862713    0.286811
C      1.110478   -0.500620    0.105889
C     -4.775011    0.463441   -0.734354
C      5.600501   -0.218504   -0.033785
C      6.085439    1.196804   -0.277712
C      5.182527    2.092367    0.516839
C      3.827228    1.543957    0.743306
C     -3.011829   -1.277071   -0.816414
C      3.390740    0.474275   -0.199435
O      6.204876   -2.455732   -0.659145
O     -6.673541    3.600285   -0.385977
O     -7.846503   -0.886012    0.742836
O      0.890246   -1.891854    2.076069
O     -3.533323   -3.197776    0.553405
O      7.414234    1.352006    0.158905
O      5.166882    3.351060   -0.113918
O      3.695044    1.123186    2.069513
O     -3.564038   -0.027395   -1.172239
O      2.406678   -0.282048    0.434461
O      4.375839   -0.384029   -0.618406
H     -1.257309    0.215819   -2.163647
H      1.090687    0.668744   -1.653701
H     -1.563499   -2.225367    1.334684
H     -8.189104    1.649239    0.526105
H     -4.358624    2.517900   -1.201193
H     -5.893608   -2.529127    0.417708
H     -5.261668   -2.205906   -1.251882
H      6.736112   -0.799919   -1.802427
H      7.592418   -1.045433   -0.256056
H     -3.774441   -1.208632    1.160106
H      5.652130   -0.413696    1.036608
H      6.007098    1.491544   -1.336669
H      5.700327    2.276986    1.503625
H      3.092554    2.395858    0.632270
H     -3.075732   -1.897406   -1.758291
H      2.963577    0.936023   -1.106665
H      5.464392   -2.589759   -0.002075
H     -7.144414    3.963592   -1.212504
H     -7.702516   -1.851853    0.816591
H      0.351800   -2.477575    2.680078
H     -3.675013   -3.427551    1.507337
H      8.033815    0.945326   -0.486158
H      6.112458    3.637253   -0.181365
H      3.508338    1.924166    2.644741
