42

C      7.069353    0.121789   -0.861691
C     -0.950265    0.904495    3.213407
C      5.622535    0.513692   -0.909891
C      4.653572   -0.387314   -0.971491
C      3.198337    0.006031   -1.019987
C      2.466200   -0.586280    0.184226
C      1.015243   -0.147371    0.063640
C      0.190379   -0.686098    1.220535
C     -5.343667    0.079166   -1.022894
C     -4.879180    1.198358   -0.105163
C     -1.719560    0.541913    2.009396
C     -4.030063   -0.607490   -1.294757
C     -1.209458   -0.217007    1.033661
C     -3.086962    0.998860    1.824819
C     -3.330171   -0.615935   -0.002361
N     -3.711189   -1.043539   -2.444008
N     -3.780799    0.614703    0.637747
O     -3.664912    1.717834    2.680123
O     -2.467115   -1.660136   -2.565903
O     -1.938715   -0.554769   -0.097189
H      7.110200   -0.921338   -1.241422
H      7.483799    0.244197    0.145237
H      7.603362    0.784165   -1.557542
H     -0.616222    0.006635    3.772033
H     -0.080258    1.546131    3.003000
H     -1.622965    1.457632    3.898603
H      5.357158    1.563833   -0.894085
H      4.934023   -1.433485   -0.986671
H      2.793069   -0.397720   -1.956146
H      3.093472    1.107220   -1.042855
H      2.489133   -1.687925    0.125019
H      2.939665   -0.265668    1.113087
H      0.647972   -0.547698   -0.893668
H      0.969894    0.958803    0.015933
H      0.195182   -1.793259    1.149060
H      0.600881   -0.415945    2.191358
H     -5.818454    0.434419   -1.935986
H     -5.956041   -0.641858   -0.439685
H     -4.487847    2.000171   -0.797867
H     -5.684258    1.574291    0.546332
H     -3.654879   -1.443754    0.662279
H     -2.400447   -2.319750   -3.345147
