41

C      3.868651    1.527604    0.428804
C      3.256544    1.923751   -0.897911
C     -5.092310    0.516999    1.271047
C     -4.251254    1.618176    1.198891
C     -4.561686   -0.739583    1.085852
C     -2.887082    1.443779    0.941533
C     -3.211345   -0.884543    0.833085
C      2.085364   -1.652211    0.902910
C     -2.352587    0.188563    0.755752
C      2.172362   -1.275733   -0.559958
C      0.718426   -1.802977    1.406742
C     -0.684799   -0.414130   -0.932597
C      0.466229    0.232566   -1.609822
C     -0.910329   -0.010933    0.483163
C      1.776152    0.127511   -0.861425
O      1.530696   -2.214483   -1.364725
O      0.570807   -2.833195    2.105310
O     -1.841700   -0.033174   -1.655554
O      0.548194   -0.255789   -2.904398
O      2.761294    0.821246   -1.529993
O     -0.465881   -1.096657    1.311672
H      4.690597    2.232756    0.668689
H      3.092704    1.512301    1.221973
H      4.336236    0.528261    0.335360
H      4.035210    2.458626   -1.462489
H      2.392719    2.586736   -0.638638
H     -6.149821    0.686784    1.473044
H     -4.658743    2.596363    1.342047
H     -5.191972   -1.600301    1.137386
H     -2.283684    2.330967    0.896657
H     -2.813735   -1.882227    0.690265
H      2.669217   -2.578919    1.083496
H      2.541353   -0.806021    1.481296
H      3.268349   -1.373261   -0.821266
H     -0.674244   -1.529049   -1.007767
H      0.242844    1.328511   -1.688425
H     -0.325768    0.902360    0.704338
H      1.611204    0.655325    0.102265
H      1.418862   -3.029307   -0.799182
H     -1.684273    0.847189   -2.072464
H     -0.012801   -1.053882   -3.054963
