41

C      4.934114   -0.982999   -0.562264
C      5.168072    1.561976   -0.831707
C      1.988264   -0.419929    1.725391
C     -2.915254    2.008716   -0.187662
C     -1.556118    1.959462   -0.115711
C      2.996365    0.459728   -0.824446
C     -1.061061   -1.668457    0.551663
C      2.088563   -0.713815   -0.742378
C      0.272506   -1.702356    0.619734
C     -5.915279   -0.074592    0.042849
C      4.315970    0.357996   -0.743428
C     -3.708226    0.894785   -0.026701
C     -1.706064   -0.407226    0.297644
C     -5.158239    0.987569   -0.110599
C     -5.373274   -1.396629    0.302851
C     -0.936082    0.735091    0.130573
C     -3.104843   -0.344907    0.221531
C     -3.902164   -1.532189    0.395324
C      1.141584   -0.528080    0.451614
O     -5.731556    2.257323   -0.362771
O     -6.139137   -2.384966    0.442780
O     -3.451531   -2.655868    0.615846
O      0.428947    0.647844    0.209538
H      4.583229   -1.722683   -1.314230
H      6.050456   -0.931983   -0.718055
H      4.791630   -1.288529    0.475351
H      6.155890    1.413229   -0.335349
H      5.328769    1.891850   -1.884897
H      4.695341    2.426781   -0.282733
H      1.352977   -0.537458    2.623990
H      2.752559   -1.224572    1.735998
H      2.474619    0.574348    1.798241
H     -3.416328    2.976768   -0.382885
H     -0.897401    2.805006   -0.235249
H      2.538271    1.452511   -0.958679
H     -1.545731   -2.604787    0.695418
H      2.672195   -1.636609   -0.611642
H      1.420879   -0.783628   -1.631494
H      0.789818   -2.658151    0.813557
H     -6.994400    0.098838   -0.038120
H     -5.428329    2.690592   -1.248893
