41

C      3.566212    1.941777   -0.666406
C      5.336602    0.948920    0.874083
C      1.606846   -2.558850    0.531604
C     -3.339619   -0.864031   -1.713796
C     -2.070211   -1.344302   -1.814076
C      3.558579   -0.421095   -0.108711
C     -0.372303    0.166871    1.156065
C      2.366611   -0.677093   -0.925466
C      0.846274   -0.334554    1.001500
C     -5.387077    1.271051    0.409001
C      4.131833    0.760065    0.031852
C     -3.663801   -0.036203   -0.671680
C     -1.397275   -0.172275    0.189242
C     -5.027415    0.470843   -0.576749
C     -4.455925    1.685923    1.441313
C     -1.099882   -1.011956   -0.882454
C     -2.702646    0.320397    0.290624
C     -3.056467    1.192289    1.382430
C      1.199312   -1.228669   -0.122731
O     -6.001311    0.134036   -1.516462
O     -4.778722    2.449993    2.392172
O     -2.253781    1.540187    2.258285
O      0.179037   -1.500579   -0.990332
H      3.583459    1.822919   -1.774458
H      2.517950    2.136358   -0.393687
H      4.134056    2.865329   -0.439803
H      6.248191    1.179265    0.288852
H      5.096453    1.778790    1.585767
H      5.444162    0.043024    1.507087
H      0.640899   -2.978920    0.933802
H      2.012223   -3.262767   -0.193153
H      2.246899   -2.385047    1.419971
H     -4.102762   -1.131006   -2.454557
H     -1.783886   -1.996513   -2.620688
H      4.005181   -1.254986    0.418965
H     -0.521519    0.791143    1.986357
H      2.630857   -1.478611   -1.664025
H      2.068449    0.226149   -1.492477
H      1.649076   -0.113823    1.694024
H     -6.407603    1.637088    0.460686
H     -6.646956   -0.611136   -1.231973
