40

C      0.244250    3.332403    0.176001
C     -2.302277   -0.673960   -1.147991
C     -3.621906    0.518503    0.486248
C      2.454152   -1.652677    0.523523
C      1.947326    1.879890   -1.130203
C      2.408975    0.515123   -0.676599
C     -0.429262   -1.495727    1.549891
C      0.112899   -2.243668    0.386774
C      0.728887    1.998179   -0.313673
C      1.019196   -0.164764   -0.788332
C     -1.462742   -0.497960    1.349323
C      0.154513    0.782615   -0.109864
C     -1.114416    0.758237    0.668678
C     -2.246443   -0.096976    0.211994
C      1.188709   -1.527997   -0.342012
O      1.488184   -2.325928   -1.477099
H     -0.525982    3.736733   -0.526340
H     -0.119531    3.290895    1.221162
H      1.080604    4.057671    0.187357
H     -2.955490   -1.568138   -1.151908
H     -1.370590   -0.935512   -1.635394
H     -2.787861    0.068331   -1.831946
H     -3.732720    1.338832   -0.245789
H     -3.643297    0.961489    1.506893
H     -4.428165   -0.222971    0.335368
H      3.337198   -1.504913   -0.095390
H      2.513441   -2.729326    0.867686
H      2.396889   -1.067625    1.441974
H      2.708471    2.627424   -0.878105
H      1.686816    1.893653   -2.210995
H      3.123602    0.053281   -1.378766
H      2.742890    0.608218    0.350514
H     -0.722257   -2.273017    2.322742
H      0.457148   -0.994400    2.046786
H      0.629764   -3.169620    0.807589
H     -0.674173   -2.719829   -0.243319
H      0.862270   -0.055972   -1.916907
H     -2.002342   -0.343725    2.356266
H     -1.384577    1.711661    1.222187
H      2.237848   -1.868433   -1.918325
