40

C      1.963996    3.044621   -0.122788
C      0.599561   -2.853962   -0.002060
C     -3.136026   -0.821997   -1.215470
C     -2.470202   -1.214667    1.188113
C     -0.191401    2.566921    1.132990
C     -1.335934    1.578847    1.152749
C      2.401222    0.340661   -0.698275
C      0.987273    2.049240    0.361122
C      1.311233   -1.545047    0.185530
C      1.229687    0.788371    0.069580
C     -1.590099    0.864597   -0.119355
C      2.174499   -1.150492   -0.957265
C      0.422179   -0.391128    0.422034
C     -0.782657   -0.299513   -0.471960
C     -2.156393   -0.511754   -0.094025
O      3.405680   -1.793913   -0.847323
H      2.925437    2.840590    0.387919
H      2.092315    2.897970   -1.210318
H      1.584610    4.069795    0.041514
H     -0.074862   -2.987586    0.874279
H      1.368504   -3.665732    0.101113
H      0.089448   -2.965408   -0.957217
H     -3.336921   -1.899452   -1.302647
H     -2.671129   -0.516762   -2.198476
H     -4.061788   -0.217125   -1.133983
H     -2.461728   -2.320922    0.957925
H     -3.523513   -1.005837    1.514621
H     -1.729813   -1.065925    1.972028
H     -0.492536    3.564199    0.783399
H      0.181435    2.668470    2.192053
H     -2.253758    2.216638    1.346807
H     -1.290787    0.924039    2.049642
H      3.341723    0.493949   -0.128699
H      2.482548    0.816995   -1.698667
H      1.973812   -1.655661    1.083611
H     -1.909669    1.552009   -0.957920
H      1.682097   -1.317298   -1.930666
H      0.141726   -0.407684    1.502592
H     -0.502923   -0.406135   -1.560729
H      3.613155   -2.263911   -1.711780
