46

C      5.207564   -1.186464   -1.745205
C     -3.897351   -1.701144   -0.895604
C      4.766564    0.208947   -1.364730
C      3.761349    0.173047   -0.254111
C      3.336076   -0.923610    0.297535
C      2.381828   -1.107601    1.358124
C      1.657236    0.016520    1.957551
C     -2.891094    2.267141   -0.755227
C      0.713908    0.751275    1.095223
C     -2.934829    1.136328   -1.762043
C     -2.542009   -1.252785    1.111240
C     -1.267496   -0.694845    1.598491
C     -1.890907    1.810166    0.315067
C     -3.142779   -0.639544   -0.084936
C     -0.408432   -0.076501    0.531343
C     -2.200893    0.032610   -1.022798
N     -1.157531    0.774136   -0.362867
H      5.980614   -1.159589   -2.531304
H      4.335140   -1.785143   -2.080876
H      5.669455   -1.693551   -0.873937
H     -4.892647   -1.370213   -1.190711
H     -3.270898   -2.055661   -1.740118
H     -4.043696   -2.598532   -0.234880
H      4.392945    0.784445   -2.220832
H      5.656629    0.736168   -0.966827
H      3.411583    1.116054    0.100109
H      3.782871   -1.854362   -0.120285
H      2.944170   -1.617013    2.217477
H      1.628121   -1.911135    1.085221
H      2.386845    0.760852    2.413295
H      1.166141   -0.386264    2.900945
H     -3.885622    2.473654   -0.308675
H     -2.548066    3.218152   -1.219596
H      0.262022    1.607192    1.687993
H      1.209624    1.234725    0.255726
H     -2.382799    1.481042   -2.661724
H     -3.977084    0.850214   -1.992077
H     -2.453761   -2.365256    0.931354
H     -3.294013   -1.184886    1.952991
H     -1.415401    0.053921    2.417812
H     -0.668280   -1.537956    2.038331
H     -2.500236    1.407678    1.137276
H     -1.265133    2.647643    0.665723
H     -3.926199    0.114504    0.205710
H      0.016726   -0.902222   -0.075711
H     -1.810254   -0.660250   -1.809462
