125

C     12.218158   -3.301252   -0.869940
C     11.152510   -5.371175    0.205725
C     -6.024423   -8.788448   -0.540790
C     -5.673548   -7.159592   -2.518723
C     -4.767351   11.842756    1.823058
C     -5.683677    9.479102    1.369630
C      6.774029   -5.534069    1.779116
C     -6.393499   -3.870421    2.975836
C     -2.907284    8.316945   -3.555180
C      8.582036   -4.399236   -0.356486
C     -4.913897   -6.929840    1.218333
C     -4.102822    9.458343   -1.124359
C      9.787309   -3.624145   -0.742847
C     -5.025153   -6.611348   -0.202161
C     -4.148024   10.578733   -0.159981
C      1.775072   -0.452935   -1.191025
C     -2.366701    0.257664   -0.999139
C      4.120301   -0.221412    2.224935
C     -1.576945   -1.678693    2.529545
C      1.568424    5.231458   -1.721998
C      2.645686   -1.479756   -0.896724
C     -3.153982   -0.837624   -0.620906
C      5.020320   -1.195159    2.564464
C     -2.327511   -2.751540    2.946985
C      0.962147    6.409900   -2.019288
C      4.625472   -3.480783   -0.348470
C     -4.820538   -2.982477    0.276547
C     -2.632506    5.483046   -1.520596
C      7.821678   -3.556876    0.613852
C     -5.740219   -6.051279    2.060174
C     -2.685054    8.999212   -1.220895
C      5.633354   -4.310415   -0.076841
C     -5.620655   -3.925983    0.729497
C     -3.198432    6.641145   -1.800675
C      2.454232    0.665281    0.742810
C     -1.055664    0.072323    0.949609
C      1.490558    2.964482   -1.065903
C     -1.243010    3.072351   -0.928343
C     10.990942   -4.067541   -0.488533
C     -5.557296   -7.487992   -1.075724
C     -4.832424   10.633088    0.960189
C      3.334446   -0.321333    1.085220
C     -1.828140   -1.022175    1.344801
C      1.642338    0.653829   -0.395632
C     -1.328543    0.711471   -0.224628
C      0.847819    4.128500   -1.363987
C      3.426105   -1.418613    0.235841
C     -2.889050   -1.484017    0.555606
C      4.351318   -2.403900    0.589979
C     -3.628468   -2.554010    0.990489
C     -1.188529    5.369727   -1.591624
C      0.792864    1.806647   -0.686671
C     -0.526766    4.179575   -1.293919
C     -0.545091    1.887055   -0.627778
C      5.137280   -2.313724    1.725242
C     -3.390161   -3.228438    2.179401
C     -0.443992    6.472589   -1.950742
C      6.505882   -4.215767    1.098500
C     -5.380919   -4.612681    1.995349
C     -2.466045    7.848596   -2.184375
O      6.032504   -3.308872    2.058028
O     -4.146271   -4.306279    2.578408
O     -1.082268    7.650043   -2.247472
H     12.639287   -3.670504   -1.837588
H     12.055496   -2.205156   -0.873054
H     12.984742   -3.523154   -0.098076
H     10.713239   -6.214227   -0.375418
H     12.236050   -5.543664    0.390329
H     10.604566   -5.294549    1.171034
H     -5.176471   -9.334088   -0.067165
H     -6.822772   -8.703192    0.196985
H     -6.435580   -9.383970   -1.395229
H     -6.524199   -7.781767   -2.913044
H     -5.980715   -6.090162   -2.584880
H     -4.724335   -7.358735   -3.034136
H     -4.174027   11.665728    2.750217
H     -4.391835   12.678021    1.216066
H     -5.818903   12.113843    2.130258
H     -6.687552    9.570728    0.866441
H     -5.266855    8.501112    1.099435
H     -5.847446    9.540197    2.485333
H      6.988412   -6.355274    1.047453
H      5.900095   -5.779663    2.412134
H      7.627995   -5.403639    2.487505
H     -5.921691   -2.923338    3.230241
H     -7.369368   -3.836513    2.500649
H     -6.428206   -4.553017    3.834825
H     -2.415751    9.310724   -3.776031
H     -3.994053    8.513056   -3.583812
H     -2.684132    7.585943   -4.357291
H      8.907904   -5.373282    0.065597
H      7.941073   -4.618245   -1.237396
H     -5.112295   -8.005994    1.446974
H     -3.834435   -6.756907    1.528003
H     -4.484476    9.826824   -2.107291
H     -4.736608    8.596695   -0.853407
H      9.654004   -2.660073   -1.248779
H     -4.673035   -5.678624   -0.602434
H     -3.535592   11.464180   -0.419204
H      1.151756   -0.479524   -2.078668
H     -2.635677    0.723882   -1.954624
H      4.013321    0.652276    2.859247
H     -0.758842   -1.337518    3.154376
H      2.671620    5.181431   -1.774094
H      2.702788   -2.313670   -1.553112
H     -3.940442   -1.161089   -1.240574
H      5.658269   -1.173927    3.434019
H     -2.130684   -3.275767    3.882564
H      1.487774    7.289836   -2.300165
H      4.023999   -3.591424   -1.225067
H     -5.099391   -2.540108   -0.663079
H     -3.262351    4.659019   -1.248334
H      7.494000   -2.619373    0.105573
H      8.414833   -3.243648    1.489627
H     -5.596730   -6.354988    3.150073
H     -6.841811   -6.137147    1.850950
H     -2.058120    9.846444   -1.594620
H     -2.333613    8.709255   -0.217874
H      5.810514   -5.113416   -0.787561
H     -6.490827   -4.216128    0.155954
H     -4.287048    6.727211   -1.749493
H      2.368315    1.527577    1.394600
H     -0.254380    0.403120    1.579823
H      2.572717    2.884266   -1.109580
H     -2.290447    3.080034   -0.865961
