45

C      3.190181   -1.244898    0.124181
C     -3.732688    1.414001   -1.294621
C      4.209526   -1.672265   -0.701124
C     -4.979297    1.189928   -1.824221
C      4.260446    0.816423    0.426013
C     -4.062905   -0.311157    0.291968
C      0.124026    1.881236    1.664217
C      0.510910   -1.073533    2.116009
C      7.363536   -0.027244   -1.285536
C     -7.368315   -1.417809   -0.805091
C      3.183216    0.003635    0.709616
C     -3.235309    0.664985   -0.214172
C      0.855874    0.865515    0.829650
C     -0.033008   -0.347249    0.938388
C      5.290737   -0.842374   -0.979229
C     -5.792927    0.198868   -1.294141
C      5.292956    0.406217   -0.399341
C     -5.324070   -0.544642   -0.236808
C      2.083554    0.430305    1.583770
C     -1.376962    0.276806    1.322781
O      1.696068   -0.518006    2.498283
O     -0.927589    1.202866    2.281988
O      6.436271   -0.987344   -1.750944
O     -7.047587   -0.272708   -1.572182
O      6.479112    1.015330   -0.844240
O     -6.301106   -1.468043    0.123433
O     -1.977915    0.935307    0.274157
H      2.356801   -1.889743    0.336130
H     -3.108169    2.192820   -1.720373
H      4.202406   -2.653465   -1.153391
H     -5.383502    1.753772   -2.655757
H      4.299247    1.821529    0.869909
H     -3.753318   -0.924085    1.116538
H      0.764390    2.278753    2.484977
H     -0.277794    2.726171    1.080274
H     -0.188779   -1.006047    3.000373
H      0.587293   -2.184873    1.930222
H      7.990983   -0.408353   -0.476474
H      7.945379    0.311385   -2.172270
H     -8.336177   -1.299664   -0.273611
H     -7.336290   -2.355364   -1.400604
H      1.046230    1.189724   -0.193652
H     -0.100219   -0.936864    0.016694
H      2.421322    1.328493    2.181438
H     -1.946539   -0.518339    1.793315
