45

C      2.359987   -2.530332   -1.214262
C      3.503615    2.829290    0.282386
C      1.527196    0.593417    1.973741
C      0.401564   -0.064208    1.729380
C     -3.556122    0.062698   -0.642762
C      2.469585   -0.304744   -0.054522
C     -1.200292    1.387743   -0.388166
C     -2.568178   -2.086084    0.139638
C     -0.018016   -2.592267   -0.914798
C     -3.946191    3.655001   -1.144121
C     -2.443273   -0.633297   -0.192267
C      2.527216    0.841838    0.933728
C     -1.248865    0.047802   -0.065511
C     -3.519553    1.395247   -0.966555
C     -2.331735    2.075536   -0.841233
C      1.103117   -0.565889   -0.585584
C      0.005972   -0.623672    0.414099
C     -0.279523   -2.108777    0.491870
N      1.121273   -1.817880   -1.302917
O      0.668922   -2.708869    1.322888
O      2.383138    2.017383    0.245083
O     -4.438910    2.340813   -1.431299
O     -2.535034    3.406596   -1.224276
O     -1.522680   -2.412222    0.967669
H      2.289592   -3.371278   -1.965779
H      3.184504   -1.903845   -1.547746
H      2.520928   -3.039639   -0.242839
H      4.364982    2.311564   -0.154553
H      3.704138    3.237741    1.292813
H      3.276545    3.719715   -0.361352
H      1.720977    0.965883    2.986332
H     -0.288712   -0.203026    2.569724
H     -4.489232   -0.457099   -0.744873
H      2.956569   -1.164780    0.428020
H      3.101302    0.034518   -0.928716
H     -0.306898    1.983543   -0.314924
H     -2.663497   -2.714883   -0.757540
H     -3.513695   -2.267764    0.731393
H      0.186019   -3.677781   -0.926557
H     -0.842909   -2.374602   -1.612537
H     -4.171248    3.864934   -0.094496
H     -4.283784    4.399061   -1.862193
H      3.555036    0.783162    1.397204
H      0.897641    0.225267   -1.360542
H      0.338528   -2.555816    2.260697
