68

C      9.045426    0.899214    2.583138
C     -7.663673   -0.884840    2.878219
C     -7.389619    1.955681    0.365240
C      8.607863    0.381804    1.225812
C     -8.201417    0.094162    1.826505
C      7.159682   -0.071808    1.381368
C      6.621886   -0.608147    0.072462
C      5.199159   -1.050097    0.267208
C      4.258888    0.015998    0.707885
C      4.151182    1.172894   -0.250829
C      3.672972    0.767348   -1.613683
C      2.294963    0.138504   -1.478792
C      1.770332   -0.292926   -2.840499
C      0.413381   -0.920864   -2.744159
C     -0.628840    0.012227   -2.170513
C     -1.989020   -0.685440   -2.095531
C     -2.947515    0.328339   -1.521782
C     -4.326157   -0.294902   -1.423067
C     -4.291911   -1.498116   -0.540152
C     -3.845665   -1.137755    0.848269
C     -7.011005    0.944701    1.399289
C     -4.815237   -0.182794    1.434177
O     -4.507590    0.455463    2.496663
O     -6.057043    0.038856    0.861500
H      8.314576    1.678845    2.904283
H     10.089247    1.284721    2.562794
H      8.944752    0.037423    3.303984
H     -7.289785   -0.259801    3.725577
H     -6.779961   -1.367548    2.430130
H     -8.441769   -1.595371    3.187194
H     -6.876653    2.949055    0.519686
H     -7.107173    1.630480   -0.654472
H     -8.499541    2.134136    0.337145
H      8.705536    1.148789    0.448053
H      9.248087   -0.520165    0.999559
H     -9.025786    0.707945    2.228985
H     -8.507602   -0.534570    0.955340
H      7.160460   -0.852908    2.167629
H      6.579804    0.791346    1.727866
H      7.195924   -1.542480   -0.193716
H      6.765485    0.097114   -0.746758
H      4.816429   -1.632773   -0.606806
H      5.226235   -1.809117    1.105342
H      4.596047    0.411878    1.685809
H      3.265469   -0.451518    0.908046
H      3.384787    1.870082    0.169865
H      5.091661    1.756546   -0.283377
H      4.362896    0.150504   -2.184158
H      3.512965    1.714169   -2.189686
H      2.334668   -0.787614   -0.870821
H      1.589084    0.826683   -0.975131
H      1.808877    0.549009   -3.546055
H      2.456569   -1.074144   -3.248209
H      0.432837   -1.897433   -2.229345
H      0.095536   -1.163132   -3.799898
H     -0.764085    0.859889   -2.871472
H     -0.362440    0.298176   -1.151158
H     -2.347743   -0.987297   -3.089565
H     -1.904423   -1.573917   -1.435595
H     -2.628342    0.708609   -0.535012
H     -2.987752    1.246496   -2.187867
H     -5.011591    0.504995   -1.083926
H     -4.677410   -0.594522   -2.449814
H     -5.371898   -1.836079   -0.416263
H     -3.703430   -2.335556   -0.977533
H     -3.810847   -2.063314    1.507364
H     -2.811100   -0.688912    0.861469
H     -6.589644    1.419002    2.321787
