46

C      7.217227    0.277358   -0.960060
C      5.816218   -0.345727   -0.949720
C      5.206236    0.043440    0.384191
C      3.802637   -0.516365    0.526300
C      3.292693   -0.076151    1.877429
C      1.918392   -0.545327    2.208673
C      0.934137   -0.008783    1.188993
C     -0.420713   -0.522286    1.593523
C     -1.473127   -0.041296    0.666883
C     -1.208182   -0.500133   -0.747358
C     -7.200590    0.613494   -1.365088
C     -4.752803    0.444391   -1.680974
C     -5.906638    0.206377   -0.697917
C     -2.329765    0.017889   -1.570795
O     -8.279057    0.278397   -0.545988
O     -5.896950   -1.182215   -0.467198
O     -2.170125    0.469019   -2.723575
O     -3.598418   -0.006112   -1.029005
H      7.063557    1.372705   -0.937151
H      7.648261    0.024576    0.051198
H      7.838140   -0.087231   -1.777132
H      5.864865   -1.428619   -1.101009
H      5.267952    0.108206   -1.798824
H      5.147846    1.131775    0.432215
H      5.850857   -0.416944    1.164850
H      3.161979   -0.090021   -0.267221
H      3.768548   -1.614652    0.468066
H      3.965678   -0.461700    2.698914
H      3.377976    1.039760    1.972699
H      1.900954   -1.641885    2.253552
H      1.662246   -0.132997    3.212024
H      1.246352   -0.404089    0.207545
H      1.001759    1.094257    1.158846
H     -0.356752   -1.633768    1.595131
H     -0.687312   -0.194267    2.626733
H     -1.524428    1.069106    0.629271
H     -2.480528   -0.394907    1.003751
H     -0.228512   -0.124428   -1.111070
H     -1.174298   -1.610430   -0.772052
H     -7.156821    1.709632   -1.524983
H     -7.270030    0.066293   -2.327239
H     -4.891181   -0.118091   -2.618972
H     -4.669082    1.515602   -1.937583
H     -5.680163    0.770337    0.212123
H     -7.941755   -0.180591    0.284231
H     -5.657281   -1.338531    0.493772
