53

C      0.111564   -0.391844    2.437514
C      2.641759   -4.238039   -0.412847
C      0.661353   -0.672590   -3.409145
C     -1.744952    3.214735    2.419263
C     -1.120715    1.839757    2.545876
C     -2.995787    3.216409    1.581471
C      0.492703    1.129736    0.651138
C     -2.364519    1.510605   -0.240688
C     -4.143520    1.118708    1.423397
C      4.521223   -1.404464   -0.056320
C     -0.303223    1.027354    1.957734
C      2.688249   -2.899027   -0.633806
C     -0.303226   -0.028240   -2.818918
C     -3.040963    1.886991    0.764219
C      3.979422   -2.368454   -1.084919
C      0.210517   -0.038166   -0.306303
C     -2.011046    0.510118   -1.270619
C     -0.465526    0.522103   -1.499541
C      1.477326   -2.145562   -0.375598
C     -1.581718    0.319654   -3.502588
O     -4.508618   -0.094976    0.958924
O      3.812810   -0.217856   -0.057053
O      4.013167   -1.842371   -2.356051
O      0.441891   -2.732805    0.055310
O     -1.888522    0.131535   -4.688007
O      1.368987   -0.816173   -0.566343
O     -2.424739    0.920365   -2.556893
H      0.359453   -0.555618    3.463179
H      1.135440   -0.620345    1.965116
H     -0.523006   -1.177195    2.072652
H      3.515272   -4.799775   -0.575290
H      1.720677   -4.674545   -0.082243
H      0.574573   -1.012413   -4.452168
H      1.603064   -0.919533   -2.952448
H     -1.986292    3.630745    3.437510
H     -1.104879    3.999573    1.992127
H     -1.724368    1.564082    3.533833
H     -3.244637    4.125121    1.157542
H     -3.800542    3.082808    2.395850
H      0.475761    1.992893    0.048767
H      1.576330    0.903843    0.990331
H     -1.719250    2.381251   -0.651151
H     -5.089958    1.733432    1.421050
H     -3.913087    1.079360    2.544307
H      5.607033   -1.247996   -0.264545
H      4.497706   -1.862886    0.966792
H      4.715084   -3.253741   -1.143896
H     -0.511341   -0.778048    0.129866
H     -2.247518   -0.521407   -1.153498
H     -0.282939    1.644658   -1.596372
H     -4.759844   -0.012451    0.005428
H      4.015080    0.266027    0.792385
H      3.588292   -2.425344   -3.004332
