79

C     -1.102378    3.286454   -2.893684
C     -0.916433    0.955578   -3.603972
C      5.098118   -2.313643   -1.715997
C      4.675873   -3.716155    0.168050
C      5.701527    2.331400    1.496792
C      4.801482    1.775777    3.602323
C     -4.960271   -2.546594    2.717968
C     -4.432966   -4.171721    1.033826
C     -4.614747    3.011709   -0.199406
C     -5.499084    1.747598   -2.026180
C      4.272698   -1.369094   -1.155642
C      3.829458   -2.775283    0.762855
C      4.761658    1.521643    0.904509
C      3.842419    0.949434    3.011555
C     -4.261487   -1.576803    2.043040
C     -3.748114   -3.182916    0.390975
C     -3.815239    1.951118    0.175200
C     -4.688996    0.691924   -1.636701
C      2.030161    0.696291   -0.734265
C     -1.162517   -0.008870    0.529749
C      5.303513   -3.509790   -1.039130
C      5.743165    2.479141    2.869001
C     -5.050303   -3.826992    2.227298
C     -5.453561    2.901430   -1.302066
C      3.658465   -1.624660    0.072646
C      3.814313    0.817245    1.663149
C     -3.634995   -1.867571    0.859485
C     -3.861781    0.777174   -0.562151
C      0.701035    1.286474   -0.749393
C     -0.537825    0.567174   -0.694004
C     -0.688642    1.897610   -2.433512
C      6.201240   -4.545760   -1.661568
C      6.772821    3.360498    3.511835
C     -5.821829   -4.901114    2.902866
C     -6.321175    4.042125   -1.709390
F      6.988060   -5.068946   -0.676873
F      5.399349   -5.444106   -2.293008
F      6.965820   -3.930598   -2.650123
F      8.005343    2.743838    3.522128
F      6.405234    3.771019    4.767386
F      6.943563    4.516641    2.747607
F     -5.998962   -4.660917    4.234861
F     -7.066006   -4.984924    2.284501
F     -5.174708   -6.093877    2.715499
F     -6.858933    3.788967   -2.951636
F     -7.306421    4.268636   -0.793491
F     -5.517314    5.162482   -1.788843
O      0.612648    1.965564   -2.012169
O     -1.481876    1.431189   -1.370259
P      2.590992   -0.253143    0.737648
P     -2.804005   -0.657560   -0.118351
H     -2.103002    3.292598   -3.367375
H     -0.305419    3.570907   -3.649319
H     -0.988504    4.016666   -2.085642
H     -1.653226    1.403722   -4.332143
H     -1.381676    0.008009   -3.260055
H     -0.000100    0.791468   -4.208212
H      5.601029   -2.162404   -2.657679
H      4.830750   -4.644158    0.707626
H      6.422515    2.870247    0.877019
H      4.839703    1.890395    4.673418
H     -5.470679   -2.367945    3.656910
H     -4.484237   -5.174573    0.614119
H     -4.585072    3.936968    0.367368
H     -6.130594    1.600271   -2.904291
H      4.104126   -0.434819   -1.676869
H      3.342075   -2.949563    1.707600
H      4.709302    1.388437   -0.167672
H      3.129694    0.426032    3.604099
H     -4.215196   -0.582255    2.472940
H     -3.253975   -3.437466   -0.533401
H     -3.146110    1.981592    1.016992
H     -4.746952   -0.216342   -2.231451
H      2.783557    1.520387   -0.923436
H      2.115112    0.068956   -1.679001
H     -1.256058    0.637376    1.387689
H     -0.582267   -0.925969    0.844207
H      0.628550    2.143640    0.043539
H     -0.541733   -0.317274   -1.477918
