44

C      6.009958    0.735095   -0.702338
C     -5.766880    1.198988    0.207708
C     -5.098651   -0.944408   -1.526622
C      4.895743    1.379317    0.120613
C     -4.285260    0.841586   -0.048626
C      4.365912    0.383941    1.137407
C      3.823998   -0.816348    0.419948
C      2.704126   -0.497765   -0.511456
C      1.510493    0.125033    0.184777
C      0.962061   -0.797816    1.244152
C     -0.230572   -0.119924    1.875098
C     -2.887146   -1.207897   -0.561359
C     -4.215108   -0.609151   -0.318931
C     -1.203644    0.086947    0.748786
O     -1.381163    1.155096    0.155865
O     -1.924844   -1.015315    0.381674
H      6.882234    1.428302   -0.772086
H      5.631599    0.386819   -1.660563
H      6.371496   -0.138699   -0.115229
H     -6.173704    0.372643    0.810263
H     -6.291602    1.233568   -0.763683
H     -5.785694    2.122633    0.788613
H     -4.702983   -1.861465   -1.999206
H     -6.131850   -1.031326   -1.160489
H     -5.047211   -0.111624   -2.280716
H      4.118265    1.702034   -0.580065
H      5.313097    2.274220    0.626819
H     -3.828960    1.046421    0.969545
H     -3.898507    1.455647   -0.851339
H      3.628125    0.819668    1.808249
H      5.224513    0.052828    1.754519
H      3.509125   -1.616625    1.149058
H      4.650011   -1.231020   -0.214002
H      3.018787    0.164338   -1.319462
H      2.368581   -1.458981   -0.963206
H      0.726226    0.261224   -0.594601
H      1.733715    1.122284    0.580859
H      1.740051   -1.027135    2.006866
H      0.623373   -1.732028    0.751657
H      0.034145    0.887595    2.261123
H     -0.736559   -0.715567    2.637101
H     -2.523868   -0.824154   -1.564232
H     -3.034965   -2.331819   -0.683618
H     -4.696462   -1.147161    0.561768
