44

C     -6.558790    0.387705   -0.017527
C      5.739016    0.253225   -1.661379
C      4.123304   -1.475081    0.193715
C     -5.372484   -0.550168    0.042733
C      5.279024    0.684128   -0.308925
C     -4.101748    0.154150   -0.442392
C     -2.985575   -0.847702   -0.346462
C     -1.710449   -0.228664   -0.817942
C     -1.362563    0.971192   -0.000598
C     -1.208802    0.596096    1.448040
C     -0.115949   -0.441014    1.559758
C      2.827420    0.376931   -0.730242
C      3.987609    0.037618    0.134633
C      1.147757    0.187311    1.013221
O      1.753765    1.064043    1.676802
O      1.657723   -0.180225   -0.206580
H     -6.767864    0.711328   -1.038823
H     -7.409206   -0.116095    0.464834
H     -6.287266    1.274130    0.601685
H      6.409349    1.034722   -2.123435
H      6.406258   -0.644099   -1.537117
H      4.948719    0.000416   -2.371387
H      4.554722   -1.781471    1.149005
H      3.063017   -1.863053    0.192710
H      4.638989   -1.833065   -0.698342
H     -5.183692   -0.905525    1.061870
H     -5.488255   -1.434113   -0.617594
H      5.162653    1.786134   -0.303534
H      6.031955    0.446673    0.481503
H     -3.866724    0.991989    0.257969
H     -4.204449    0.518708   -1.464962
H     -3.233116   -1.777328   -0.950011
H     -2.893958   -1.193421    0.698724
H     -1.778262    0.065818   -1.907933
H     -0.922409   -1.009063   -0.803591
H     -2.079916    1.807582   -0.149957
H     -0.325243    1.320750   -0.315829
H     -2.182597    0.239628    1.849385
H     -0.906313    1.506241    2.059061
H      0.018606   -0.591735    2.675417
H     -0.309170   -1.381506    1.061828
H      3.005849   -0.010630   -1.774855
H      2.677025    1.472579   -0.859148
H      3.822038    0.374862    1.167869
