34

C     -3.786310    0.441960    0.326294
C     -3.000273    1.006476   -0.797430
C     -3.014841   -0.319040    1.338942
C     -1.821628    0.207953   -1.224171
C     -1.940588   -1.204005    0.728584
C      0.271667    0.287565    1.649606
C      1.101012   -0.465255    0.603359
C      3.015008   -0.087837   -0.929058
C      4.268452   -0.145581   -0.534389
C      2.150187    0.505009    0.100381
C      4.319903    0.415903    0.809112
C     -1.012010   -0.239277   -0.019930
O      2.620710   -0.554916   -2.195440
O      5.364791   -0.652458   -1.263473
O      5.367027    0.530139    1.521279
O     -0.746666    0.800703    0.839513
O      3.033728    0.795444    1.158087
O      0.182284   -0.816780   -0.357677
H     -4.279277    1.307391    0.860040
H     -4.651719   -0.175046   -0.036683
H     -2.665913    2.064573   -0.603258
H     -3.687281    1.091901   -1.689524
H     -2.530916    0.378316    2.081129
H     -3.710220   -0.989251    1.888932
H     -1.225621    0.801874   -1.940551
H     -2.181782   -0.725242   -1.725988
H     -1.414749   -1.746887    1.511131
H     -2.430865   -1.834820   -0.030474
H     -0.118915   -0.398014    2.417193
H      0.864304    1.062229    2.146308
H      1.627341   -1.323464    1.066692
H      1.693578    1.446638   -0.271277
H      2.438279   -1.539500   -2.354455
H      5.901304    0.073298   -1.763779
