31

C     -5.001542    0.815688    0.601149
C     -2.216411   -1.369804   -1.820835
C     -4.016472   -0.038700   -0.111343
C      4.072103    1.915674   -0.261686
C      2.888910    2.241687   -0.892630
C     -2.741855   -0.053587    0.220335
C      4.135111    0.782889    0.495291
C      1.813133    1.413064   -0.736723
C     -1.732512   -0.911844   -0.489964
C      3.016957   -0.066689    0.649804
C      1.832055    0.232833    0.035348
C      3.209346   -1.231058    1.476514
C      0.639577   -0.568868    0.130019
O      2.395354   -2.111101    1.766393
O      4.483689   -1.447443    2.062324
O      0.482554   -1.620026    0.753011
O     -0.537429   -0.158454   -0.552476
H     -5.323432    0.263206    1.504053
H     -4.527133    1.781076    0.904515
H     -5.844530    1.059127   -0.083560
H     -1.350439   -1.778937   -2.380380
H     -2.969089   -2.178890   -1.659518
H     -2.729498   -0.586289   -2.411925
H     -4.352333   -0.660785   -0.918278
H      4.910983    2.591450   -0.402509
H      2.814190    3.137784   -1.500239
H     -2.424016    0.582971    1.039015
H      5.062937    0.546235    0.977751
H      0.847519    1.623846   -1.215778
H     -1.576274   -1.818006    0.150462
H      4.738546   -2.387049    2.407302
