81

C     -9.791966   -3.059049    0.752207
C      9.792247   -3.263907   -0.761621
C     -9.499529   -1.602789    1.013890
C      9.448827   -2.170156    0.224602
C     -8.191000   -1.149279    0.388448
C     -7.021250   -1.911793    0.910053
C     -5.757172   -1.392444    0.208995
C     -5.584980    0.049998    0.496735
C     -4.288165    0.544700   -0.163834
C     -4.351917    0.353630   -1.622750
C     -3.206660    0.776557   -2.458400
C     -2.797048    2.172370   -2.533992
C     -2.354327    2.945289   -1.385479
C     -1.166095    2.399406   -0.622601
C      0.047787    2.282025   -1.464782
C      1.273571    1.745804   -0.695816
C      0.941316    0.385718   -0.207929
C      1.972778   -0.350572    0.541536
C      2.407467    0.202975    1.819265
C      3.024451    1.467948    2.092232
C      4.305604    1.980496    1.652529
C      4.710285    2.186316    0.281770
C      4.906715    1.096259   -0.682674
C      5.960632    0.132258   -0.144889
C      6.150581   -0.970104   -1.181105
C      7.172302   -1.880868   -0.629735
O      4.968009   -1.642767   -1.444704
O      6.909372   -3.084352   -0.462647
O      8.413127   -1.393249   -0.302547
H     -8.972037   -3.739561    1.000222
H    -10.720339   -3.291016    1.349558
H    -10.088626   -3.227624   -0.302819
H     10.066871   -4.216465   -0.245598
H      8.976299   -3.495803   -1.466368
H     10.644446   -2.907650   -1.381560
H    -10.305228   -1.010731    0.514457
H     -9.522581   -1.347238    2.082216
H     10.317241   -1.493697    0.398093
H      9.115486   -2.592314    1.195242
H     -8.084094   -0.078949    0.712167
H     -8.246604   -1.157414   -0.709871
H     -7.093921   -2.997960    0.747317
H     -6.838798   -1.762169    1.987741
H     -5.961767   -1.543387   -0.893666
H     -4.872667   -1.981123    0.450151
H     -5.570344    0.312204    1.560012
H     -6.377442    0.671054    0.006263
H     -3.464383   -0.077149    0.313704
H     -4.151613    1.544725    0.229713
H     -5.306096    0.734037   -2.078339
H     -4.444324   -0.774117   -1.801006
H     -2.358564    0.056424   -2.268131
H     -3.498869    0.475565   -3.527550
H     -3.690435    2.742488   -2.975600
H     -2.032438    2.328604   -3.374668
H     -1.936679    3.951852   -1.784530
H     -3.111144    3.284691   -0.677610
H     -0.940787    3.187454    0.157797
H     -1.449860    1.506297   -0.037739
H      0.301051    3.230386   -1.969451
H     -0.074338    1.537725   -2.306670
H      2.064736    1.663650   -1.487638
H      1.507442    2.500145    0.046459
H      0.024562    0.383135    0.453816
H      0.576488   -0.223614   -1.100155
H      2.755810   -0.722944   -0.152080
H      1.408463   -1.372987    0.796149
H      3.014682   -0.650700    2.384859
H      1.464266    0.145685    2.532149
H      2.286436    2.359151    2.054698
H      3.106693    1.504499    3.313647
H      5.114797    1.370146    2.231359
H      4.409544    3.027984    2.175807
H      5.704720    2.771586    0.293831
H      4.046385    2.971407   -0.231202
H      5.472772    1.599838   -1.574188
H      4.083167    0.629391   -1.175121
H      5.636198   -0.360121    0.789654
H      6.878712    0.726745   -0.028315
H      6.543034   -0.540707   -2.134387
H      5.198715   -2.501848   -1.874706
