17

C      2.718977    0.211143   -0.137182
C      1.534308    0.185373   -0.714825
C     -1.853133    0.751979    0.152698
C     -1.742707   -0.657829    0.674362
C     -0.653047    1.202601   -0.182369
C     -0.528640   -1.096521   -0.164641
C      0.328445    0.125113    0.094924
H      3.624893    0.255849   -0.722214
H      2.811134    0.188025    0.939340
H      1.489152    0.210175   -1.792271
H     -2.793981    1.256062    0.088986
H     -1.402891   -0.604282    1.707430
H     -2.622821   -1.254791    0.474544
H     -0.484908    2.198215   -0.584837
H     -0.864882   -1.109422   -1.224276
H     -0.096718   -2.024135    0.190589
H      0.536819    0.162445    1.199741
