49

C     -4.570912    0.240099   -0.646036
C     -4.003171   -2.040228    0.144752
C     -1.572114    1.158512   -2.191462
C      6.793318   -0.596738    0.550727
C      6.493732   -1.503014   -0.430390
C      5.790505    0.219827    1.032648
C      5.207601   -1.633820   -0.964775
C      2.272610    0.842264    0.530184
C      3.541410    0.940397    1.026891
C      2.909420   -0.875981   -0.949490
C     -1.754737   -0.851530    1.027567
C     -2.897287    1.353840    1.361344
C      0.516841   -0.114963   -0.959886
C      1.912311   -0.051135   -0.457583
C      4.511884    0.099478    0.510915
C      4.205574   -0.818583   -0.483934
C     -3.060653   -0.128296    1.387404
C     -2.146396   -0.543863   -0.430246
C     -2.267804    1.885567    0.116396
C     -3.561355   -0.576873    0.039681
C     -1.592007    0.811403   -0.710219
O     -1.328641    2.863254    0.524323
O     -0.258924    0.795692   -0.298817
H     -4.927448    1.136744   -0.104289
H     -4.183090    0.502476   -1.667456
H     -5.480350   -0.364543   -0.841405
H     -3.529640   -2.645167   -0.642816
H     -5.116213   -2.110691    0.004723
H     -3.788068   -2.477252    1.132373
H     -1.678604    0.241809   -2.787319
H     -0.617304    1.705542   -2.450672
H     -2.380897    1.866535   -2.467253
H      7.786190   -0.491243    0.967536
H      7.270415   -2.132384   -0.800475
H      5.986181    0.944394    1.803321
H      5.014908   -2.348861   -1.724963
H      1.508445    1.513688    0.945515
H      3.746251    1.663261    1.798927
H      2.679746   -1.594861   -1.725391
H     -1.822856   -1.920983    1.271922
H     -0.845006   -0.335033    1.363585
H     -3.894169    1.807737    1.516207
H     -2.309577    1.626840    2.284254
H      0.157506   -1.147708   -0.673813
H      0.456553   -0.076256   -2.059656
H     -3.576067   -0.506627    2.258242
H     -1.816666   -1.319760   -1.110163
H     -2.960220    2.424806   -0.562070
H     -0.821224    2.562227    1.316149
