50

C     -6.722239    1.230246   -1.483563
C      7.317961    0.538151    0.209225
C      4.843198    1.697639   -0.558691
C     -6.603287   -0.279389   -1.421934
C      6.004658   -0.117819    0.581892
C     -5.761239   -0.652342   -0.231481
C     -4.388908   -0.027484   -0.388227
C     -3.539756   -0.411577    0.825808
C     -2.185598    0.228092    0.632682
C     -1.250305   -0.083242    1.781035
C      0.096284    0.547559    1.599591
C      0.809600    0.090194    0.347374
C      1.049969   -1.380204    0.322619
C      1.751289   -1.793020   -0.918939
C      4.989060    0.185392   -0.493651
C      3.082234   -1.191841   -1.124501
O      3.744408   -1.433638   -2.193323
O      3.729899   -0.348394   -0.238518
H     -6.404092    1.694164   -0.534247
H     -7.794469    1.515162   -1.641542
H     -6.139498    1.626249   -2.347481
H      7.859033   -0.088704   -0.552474
H      7.952191    0.757865    1.089470
H      7.078788    1.503744   -0.280868
H      3.791519    2.017505   -0.610077
H      5.379660    2.140877   -1.412159
H      5.264768    2.184387    0.360545
H     -6.151288   -0.649350   -2.363572
H     -7.624021   -0.723078   -1.275830
H      6.137791   -1.198678    0.762307
H      5.695802    0.328637    1.550144
H     -6.258263   -0.232244    0.672807
H     -5.684623   -1.752800   -0.137673
H     -4.431549    1.062011   -0.474543
H     -3.960327   -0.434660   -1.318330
H     -3.367317   -1.522043    0.773684
H     -4.033796   -0.143804    1.760501
H     -2.342984    1.318171    0.542862
H     -1.784334   -0.171603   -0.336401
H     -1.165126   -1.169574    1.911173
H     -1.700378    0.355638    2.692393
H     -0.050192    1.644496    1.535982
H      0.721640    0.351129    2.493409
H      0.176739    0.353068   -0.533687
H      1.736354    0.686629    0.276391
H      1.638816   -1.701842    1.207216
H      0.068302   -1.901168    0.342478
H      1.108695   -1.621716   -1.828669
H      1.894639   -2.895007   -0.883834
H      5.420291   -0.131785   -1.473675
