116

C    -15.849025    2.360161    0.230023
C     14.065402   -1.971243   -2.363667
C    -16.260639    0.921892    0.451019
C     13.602189   -2.498972   -1.053802
C    -15.243835   -0.059861   -0.117879
C     12.416027   -1.813179   -0.477012
C    -13.914364    0.118295    0.521539
C     12.509330   -0.383082   -0.124023
C    -12.831273   -0.774708    0.063363
C     12.805063    0.597326   -1.196323
C    -12.465747   -0.698498   -1.382330
C     12.822132    2.034583   -0.638127
C    -11.990709    0.683927   -1.794033
C     11.495963    2.407909   -0.033359
C    -10.787037    1.127440   -1.039452
C     10.428521    2.295501   -1.101543
C     -9.603313    0.210921   -1.238167
C      9.081391    2.640342   -0.559236
C     -9.111675   -0.383832   -0.175083
C      8.870637    2.991779    0.680086
C     -7.945096   -1.292546   -0.326140
C      7.488477    3.316139    1.127367
C     -6.772164   -0.824404    0.506293
C      7.176341    2.326379    2.239619
C     -6.256461    0.526840    0.164901
C      7.228907    0.894444    1.759682
C     -5.717084    0.726910   -1.189970
C      6.205882    0.681324    0.697331
C     -4.614270   -0.082921   -1.708468
C      6.166752   -0.722427    0.142415
C     -3.297127   -0.122027   -1.051887
C      5.903644   -1.758314    1.175817
C     -3.317783   -0.723282    0.297916
C      4.646180   -1.649368    1.942659
C      0.233068   -2.830665    1.453590
C      0.399460   -0.332944    0.889322
C      1.004069   -1.672660    0.968698
C     -1.973963   -0.763349    0.971334
C      3.452170   -1.763579    1.080796
O      1.081101   -3.974301    1.195885
O     -1.962270   -1.229230    2.118462
O      3.524764   -2.016314   -0.135906
O     -0.875664   -0.310801    0.335156
O      2.238167   -1.584021    1.656174
H    -15.230667    2.774035    1.051344
H    -16.784204    2.952086    0.094678
H    -15.265373    2.491772   -0.712303
H     13.264628   -1.393039   -2.842916
H     15.013786   -1.416986   -2.225125
H     14.252424   -2.867793   -3.021612
H    -16.422896    0.709025    1.532438
H    -17.207789    0.752750   -0.107328
H     14.446125   -2.551923   -0.310317
H     13.304440   -3.583424   -1.164972
H    -15.682285   -1.075245    0.129225
H    -15.282022    0.030061   -1.197092
H     12.107470   -2.426963    0.431091
H     11.557997   -1.967363   -1.194280
H    -13.596708    1.182698    0.322435
H    -14.041775    0.068700    1.621886
H     13.271636   -0.297729    0.719977
H     11.546465   -0.096757    0.394219
H    -11.901877   -0.633759    0.653239
H    -13.139427   -1.834430    0.259542
H     12.151044    0.536126   -2.070915
H     13.853333    0.457425   -1.540979
H    -13.243639   -1.085509   -2.070711
H    -11.588540   -1.366852   -1.534136
H     13.637379    2.053202    0.094678
H     13.057092    2.687308   -1.494621
H    -12.776261    1.458789   -1.634221
H    -11.755851    0.714026   -2.877401
H     11.266683    1.832677    0.868580
H     11.611748    3.477651    0.292503
H    -10.942323    1.357936    0.014728
H    -10.453849    2.098367   -1.511947
H     10.670327    2.957517   -1.932254
H     10.362277    1.222944   -1.385003
H     -9.190835    0.062116   -2.225932
H      8.247626    2.589079   -1.249567
H     -9.509230   -0.252462    0.829845
H      9.701651    3.043756    1.370923
H     -7.704739   -1.518255   -1.363590
H     -8.265863   -2.267180    0.147589
H      7.507670    4.353754    1.515962
H      6.766150    3.288567    0.309992
H     -7.154134   -0.770884    1.562526
H     -6.039492   -1.637787    0.501645
H      6.097334    2.517938    2.503522
H      7.813801    2.480498    3.108117
H     -7.236324    1.177916    0.157944
H     -5.727302    0.983544    0.994324
H      7.123635    0.245568    2.632115
H      8.276724    0.754066    1.359532
H     -6.571538    0.644706   -1.926203
H     -5.403157    1.808623   -1.259999
H      5.219463    1.018764    1.039212
H      6.479131    1.336255   -0.176717
H     -4.421222    0.295224   -2.775997
H     -4.924312   -1.156053   -1.928207
H      5.376455   -0.758236   -0.626080
H      7.106689   -0.985042   -0.371840
H     -2.786884    0.895037   -1.058937
H     -2.566793   -0.738375   -1.672150
H      6.805745   -1.939176    1.838860
H      5.842273   -2.741192    0.608975
H     -3.672989   -1.804816    0.174760
H     -3.981656   -0.284486    1.047937
H      4.599686   -2.528329    2.636496
H      4.559012   -0.720617    2.549144
H      0.033856   -2.887339    2.526798
H     -0.654492   -3.070018    0.820185
H      1.116051    0.323020    0.308263
H      0.399299    0.177988    1.910013
H      1.304479   -1.942958   -0.113432
H      1.318722   -3.836123    0.245603
