24

C     -2.211489    0.779084   -0.552405
C     -1.018712   -2.014279   -0.518276
C     -1.821645    0.039727    0.687111
C      2.845430    1.331347   -0.133342
C      2.276488    1.216733    1.127512
C      2.271110    0.687671   -1.222241
C      1.132388    0.457022    1.275149
C      1.127290   -0.059174   -1.023852
C      0.545613   -0.186344    0.205372
C     -0.684821   -0.949115    0.504501
Cl    -0.423104   -1.745797    2.058270
H     -1.564159    0.557114   -1.422724
H     -3.255608    0.536301   -0.828838
H     -2.207531    1.900302   -0.417517
H     -1.363002   -1.651861   -1.488960
H     -1.833024   -2.641913   -0.098929
H     -0.133819   -2.686778   -0.561644
H     -1.525638    0.743766    1.456124
H     -2.699596   -0.548518    1.081229
H      3.730113    1.920422   -0.315466
H      2.706126    1.696213    1.978687
H      2.750523    0.800574   -2.192874
H      0.700234    0.353167    2.285110
H      0.656833   -0.535665   -1.881997
