48

C      3.710379    1.035467    1.028153
C      4.626942    0.293798   -2.543841
C      0.615236   -3.090356    0.405956
C      1.170433   -1.463584    2.119150
C      4.441730    0.932717   -0.251683
C     -4.474313   -1.322665    0.155492
C     -5.304434    0.460403   -1.188126
C     -3.407768   -1.901958    0.824396
C     -5.025065    1.636266   -1.833069
C      3.849155    0.372136   -1.282350
C     -4.265747   -0.141778   -0.513203
C     -2.167415   -1.289333    0.807656
C     -3.763388    2.175330   -1.798144
C     -1.947983   -0.103310    0.138965
C     -3.020279    0.463122   -0.523676
C     -0.582881    0.489110    0.171361
C      0.377706   -0.661704   -0.106127
C      2.505505   -0.141741   -1.189952
C      0.065454    2.333604    1.623607
C      0.251057   -1.703263    0.948565
O     -3.514107    3.283318   -2.409926
O      2.000472   -0.669924   -2.233169
O      0.054770    3.057985    0.595275
O      0.390866    2.877549    2.860651
O     -2.800106    1.583854   -1.151824
O     -0.259756    0.995989    1.443952
O      1.692354   -0.122545   -0.072694
O     -1.058303   -1.832602    1.466684
H      2.797524    1.646847    0.955204
H      3.543837   -0.005114    1.373157
H      4.409511    1.470019    1.802631
H      5.024539    1.280099   -2.858748
H      3.983667   -0.080845   -3.369248
H      5.503230   -0.399531   -2.423086
H      1.583392   -3.038575   -0.133527
H      0.657893   -3.800339    1.237010
H     -0.208433   -3.376644   -0.267220
H      0.729759   -1.869736    3.071744
H      2.152019   -2.004125    1.985100
H      1.379955   -0.397581    2.321683
H      5.471697    1.327060   -0.323409
H     -5.457149   -1.785587    0.154852
H     -6.308788    0.072953   -1.241672
H     -3.548914   -2.837316    1.361068
H     -5.798463    2.158906   -2.381493
H     -0.540728    1.260582   -0.619132
H      0.204295   -1.052048   -1.134316
H      0.260643    3.885092    2.997323
