50

C      7.181359   -0.473535   -1.166657
C     -7.649171   -1.045300   -0.831322
C     -5.864948   -0.404360    1.398022
C      5.691278   -0.792565   -1.169313
C     -6.145448   -1.072565   -0.944308
C      5.333181   -1.406556    0.153912
C      3.905208   -1.778421    0.304933
C      2.964275   -0.571625    0.156871
C      3.236427    0.459886    1.169296
C      2.527704    1.748387    1.136655
C      1.054375    1.780551    1.197153
C      0.353795    1.231063    0.011139
C     -1.164681    1.385194    0.305553
C     -1.877313    0.812832   -0.922572
C     -5.478410   -0.068989   -0.027219
C     -3.347183    0.926848   -0.713623
O     -3.979606    1.965585   -0.951012
O     -4.081164   -0.170264   -0.227411
H      7.587023   -0.415010   -0.135382
H      7.731215   -1.257695   -1.732601
H      7.364477    0.479930   -1.694830
H     -8.054783   -1.546117   -1.747799
H     -8.012157   -1.666751    0.020804
H     -8.070134   -0.025058   -0.800867
H     -5.222634    0.114829    2.136157
H     -5.817874   -1.479151    1.600596
H     -6.897240   -0.038553    1.558032
H      5.499354   -1.442452   -2.024789
H      5.175867    0.207601   -1.239947
H     -5.794047   -0.964508   -1.995164
H     -5.830817   -2.116577   -0.645081
H      5.923340   -2.367214    0.222808
H      5.718185   -0.783799    0.985243
H      3.591926   -2.514675   -0.430028
H      3.753911   -2.155179    1.330723
H      1.976675   -1.065719    0.480160
H      2.812041   -0.261297   -0.875741
H      3.103202   -0.016741    2.208681
H      4.353627    0.716760    1.130460
H      2.893562    2.313790    0.189337
H      2.928123    2.458926    1.934258
H      0.699883    1.207498    2.113271
H      0.681758    2.833793    1.422479
H      0.511048    1.881318   -0.906359
H      0.541685    0.230678   -0.311311
H     -1.429854    0.736492    1.149717
H     -1.394028    2.442855    0.422795
H     -1.544484    1.279994   -1.853694
H     -1.562173   -0.252582   -0.969307
H     -5.876357    0.938447   -0.299281
