21

C      0.894684    0.862365    1.034671
C      0.167163    1.640292   -0.020106
C     -0.408262   -1.174785    0.825823
C      0.978845   -0.599427    0.633140
C     -1.075225    0.911818   -0.358564
C     -1.349528   -0.372874    0.021519
C      1.434984   -0.748336   -0.775047
N     -2.144247    1.350657   -1.081056
N     -2.559759   -0.697540   -0.463970
N     -3.020311    0.349520   -1.122454
O      0.750354   -1.312213   -1.665420
O      2.668468   -0.250611   -1.147877
H      0.296427    0.922083    1.966576
H      1.889610    1.277723    1.276883
H      0.832337    1.760410   -0.894724
H     -0.085686    2.634020    0.420627
H     -0.402916   -2.241922    0.529969
H     -0.638559   -1.104918    1.906832
H      1.727368   -1.087506    1.282775
H     -3.077498   -1.598968   -0.363081
H      3.121751   -0.519788   -2.006515
