41

C     -5.076568    0.659535    0.113940
C      6.475152   -0.288683   -0.186489
C     -4.102195    1.647726   -0.431041
C     -4.565909   -0.722964   -0.233324
C      5.611317   -1.373143   -0.182301
C      5.936805    0.948314   -0.485361
C     -2.696153    1.376547    0.073336
C     -3.214189   -0.972448    0.404814
C      4.268743   -1.238150   -0.462716
C      4.596558    1.081141   -0.764985
C      0.060862    0.745230   -0.611081
C     -2.239989   -0.017340   -0.236353
C      3.742024   -0.000140   -0.759502
C     -0.843076   -0.193195    0.147018
C      1.491630    0.545455   -0.217468
C     -0.274358   -1.538015   -0.005982
N      2.385914    0.204967   -1.053506
O      1.836238    0.741185    1.101041
O      0.054718   -2.151265    1.037573
O     -0.070540   -2.186401   -1.200199
H     -6.035025    0.786681   -0.434711
H     -5.218101    0.702476    1.196441
H      7.532113   -0.413006    0.037115
H     -4.370872    2.661667   -0.059293
H     -4.074938    1.576374   -1.521208
H     -5.272317   -1.506018    0.085554
H     -4.460503   -0.802607   -1.351169
H      6.028578   -2.346997    0.051738
H      6.615409    1.791372   -0.487248
H     -2.039806    2.185062   -0.213892
H     -2.791581    1.418405    1.199781
H     -2.981844   -2.024689    0.248837
H     -3.314554   -0.683517    1.477663
H      3.603413   -2.081237   -0.458253
H      4.214984    2.064164   -0.993569
H     -0.199650    1.814066   -0.526619
H      0.005770    0.517113   -1.709304
H     -2.357882   -0.132864   -1.353203
H     -0.737858    0.106073    1.226139
H      2.648131    0.298611    1.522015
H     -0.170451   -3.199484   -1.271568
