33

C     -4.139351    0.474041   -0.407607
C     -1.843184   -1.441833   -0.587475
C     -2.937405    0.539458    0.476768
C      3.576861    0.137101   -0.259137
C      3.094833   -0.754942    0.849967
C      2.525434    1.095882   -0.739700
C      1.785675   -0.207075    1.361561
C      1.175770    0.442529   -0.914889
C     -0.567797    0.114715    0.823888
C     -1.688405    0.000798   -0.186749
C      0.756439   -0.372836    0.260458
H     -4.862458    1.260269   -0.041765
H     -4.678891   -0.477658   -0.351408
H     -3.917871    0.762871   -1.472383
H     -2.795973   -1.582202   -1.171580
H     -0.963788   -1.742861   -1.159043
H     -1.910615   -2.106552    0.309158
H     -3.142780   -0.081811    1.381274
H     -2.766560    1.574587    0.780550
H      4.438476    0.765665    0.105082
H      3.962488   -0.427709   -1.115962
H      3.793221   -0.786478    1.703095
H      2.890272   -1.771077    0.447938
H      2.462487    1.961847   -0.072753
H      2.850159    1.467440   -1.735087
H      1.446545   -0.772511    2.252355
H      1.865846    0.864866    1.578586
H      1.180628   -0.123640   -1.871487
H      0.441641    1.279459   -1.057731
H     -0.844559   -0.428302    1.740742
H     -0.431234    1.196739    1.037280
H     -1.473592    0.578126   -1.096554
H      0.717688   -1.438903   -0.044952
