21

C      0.387854   -1.393341   -0.336206
C     -1.021558   -1.660089    0.139924
C      0.234587    1.018911    0.253161
C      1.001162   -0.249778    0.436850
C     -1.835552   -0.409716    0.157353
C     -1.226611    0.817861    0.210073
C      2.383640   -0.019287   -0.050943
N     -3.143163   -0.170837    0.131545
N     -2.203636    1.736638    0.213296
N     -3.349007    1.124416    0.165718
O      2.873375   -0.712175   -0.959803
O      3.143688    0.988907    0.518572
H      0.970317   -2.308212   -0.172558
H      0.386190   -1.163710   -1.406508
H     -1.038684   -2.147067    1.125814
H     -1.498457   -2.345957   -0.580337
H      0.599995    1.509354   -0.672744
H      0.475089    1.713148    1.105042
H      1.019989   -0.569987    1.518674
H     -2.070891    2.790532    0.248693
H      3.911673    1.450390    0.007347
