30

C      1.312556    2.061641   -1.811013
C     -4.058649   -1.548192    0.016276
C     -4.231472   -0.760248    1.134128
C     -2.892813   -1.431523   -0.723486
C     -3.247627    0.127543    1.498121
C      2.381442    0.289294   -0.477098
C      3.378904   -1.504835    1.057868
C      1.347763    1.367050   -0.443591
C      2.453610   -0.411123    0.821750
C     -1.892188   -0.547898   -0.377456
C     -2.078808    0.234454    0.743885
C     -0.596268   -0.230173   -0.964289
C     -0.877840    1.065174    0.871470
N      5.762579   -1.459013    0.343397
N      4.535388   -1.475194    0.562951
N      0.034320    0.779027   -0.179824
O      1.695277   -0.055177    1.753165
O     -0.065294   -0.729623   -1.993089
O     -0.701225    1.905073    1.788705
H      2.098940    2.814314   -1.904837
H      1.322612    1.285543   -2.583883
H      0.312191    2.555844   -1.865757
H     -4.848239   -2.239982   -0.249909
H     -5.161429   -0.871009    1.702061
H     -2.786894   -2.055111   -1.584703
H     -3.381564    0.739108    2.365552
H      2.184659   -0.420758   -1.312167
H      3.359833    0.775376   -0.737699
H      3.080663   -2.367311    1.669062
H      1.559575    2.107727    0.327191
