27

C     -3.900795   -0.294062   -1.186323
C     -2.464691   -0.745613   -0.893677
C      4.300099    0.113632    0.257691
C      4.009679   -0.815284    1.217811
C      3.304955    0.735208   -0.445710
C      2.697688   -1.143207    1.494774
C     -2.431488    0.976745    0.796155
C     -1.718298    0.483887   -0.439232
C      2.004093    0.399309   -0.159808
C      1.669056   -0.529762    0.798186
C      0.754297    0.874234   -0.722318
C      0.203589   -0.651057    0.850425
N     -0.355505    0.233727   -0.106891
O     -1.824188    1.099903    1.858043
O      0.676955    1.748007   -1.643395
O     -0.434742   -1.400799    1.604663
H     -4.482695   -0.252814   -0.235806
H     -4.421540   -1.014893   -1.849234
H     -3.903028    0.690248   -1.699940
H     -2.029982   -1.139362   -1.810519
H     -2.481069   -1.513374   -0.092878
H      5.334251    0.365468    0.046348
H      4.813934   -1.304920    1.772945
H      3.539654    1.472003   -1.207032
H      2.413685   -1.869267    2.242301
H     -3.467908    1.229327    0.785944
H     -1.806005    1.235431   -1.232520
