26

C      1.066907   -1.965390    0.710361
C      4.184264    0.459002   -0.897779
C     -2.260936   -0.267211   -1.385492
C     -0.993547   -0.552111   -0.959475
C     -3.102852    0.463422   -0.540240
C     -1.376994    0.577558    1.086279
C      0.842268   -0.464306    0.700630
C     -0.534386   -0.134277    0.280759
C     -2.677448    0.895879    0.703309
C      1.845680    0.110590   -0.231099
N     -3.537350    1.633661    1.548928
O      1.426689    0.773152   -1.212030
O      3.190788   -0.078239   -0.023789
H      2.101764   -2.116830    1.105366
H      1.067176   -2.304791   -0.338961
H      0.359709   -2.501875    1.358036
H      4.456563    1.453155   -0.467365
H      3.788420    0.522891   -1.922291
H      5.067820   -0.233303   -0.877912
H     -2.665379   -0.569538   -2.341001
H     -0.350906   -1.114248   -1.613938
H     -4.122005    0.709174   -0.848108
H     -1.060263    0.926931    2.069269
H      1.012912   -0.044245    1.713335
H     -4.389584    2.056751    1.153795
H     -3.339310    1.764199    2.556752
