26

C      0.624505   -1.664739    1.820235
C      3.575650    0.822409   -1.059719
C     -2.503421   -0.629164   -1.369364
C     -1.309301   -1.191520   -0.964743
C     -2.893991    0.567172   -0.815298
C     -0.919727    0.600124    0.506388
C      0.758416   -1.258951    0.350410
C     -0.488292   -0.604825   -0.026625
C     -2.101698    1.194182    0.131258
C      1.965218   -0.458214    0.187185
N     -2.524115    2.434535    0.694258
O      2.677630   -0.211648    1.188202
O      2.394556    0.063407   -1.019733
H      1.548555   -1.376998    2.386777
H      0.420852   -2.747061    1.921446
H     -0.212907   -1.127833    2.311730
H      4.383116    0.382126   -0.407221
H      3.440865    1.861960   -0.714263
H      3.936721    0.841378   -2.112924
H     -3.160036   -1.075868   -2.104370
H     -1.056264   -2.148627   -1.447116
H     -3.826383    1.061739   -1.093631
H     -0.275732    1.053398    1.237525
H      0.865818   -2.206962   -0.221679
H     -1.804330    3.091728    1.067969
H     -3.515706    2.728252    0.756337
