37

C     -2.862400    1.285126    0.908690
C      1.623421   -1.630517   -1.683203
C      3.885447    1.880996   -1.409569
C      3.352176    0.641540   -1.132744
C      3.124769    2.996695   -1.234989
C     -0.352654   -2.084372    0.407072
C     -1.964645    0.124333    0.774822
C      2.040525    0.527545   -0.676028
C      0.134798   -0.841373    0.103223
C      1.794040    2.901638   -0.773080
C     -1.640931   -2.293143    0.902506
C     -0.684202    0.261069    0.293156
C     -2.430702   -1.161308    1.079224
C      1.290709    1.662939   -0.506387
C     -0.104455    1.549560   -0.012755
C     -3.758567   -1.303345    1.632621
C      1.517040   -0.806371   -0.403070
O      1.144618    4.086087   -0.641872
O     -2.020677   -3.561924    1.169535
O     -0.770586    2.604230    0.136174
O     -4.502199   -0.313036    1.811139
O     -4.296346   -2.564326    2.004935
O      2.338776   -1.445452    0.546269
H     -2.604333    2.191010    0.368871
H     -3.859979    1.014767    0.385381
H     -3.172700    1.496386    1.964259
H      2.662403   -2.016695   -1.725558
H      0.914792   -2.466598   -1.705986
H      1.506108   -0.970495   -2.570910
H      4.906314    2.008670   -1.767998
H      3.989187   -0.212962   -1.285049
H      3.541735    3.967960   -1.451696
H      0.265618   -2.985808    0.269439
H      0.281506    4.369469   -0.368988
H     -2.813765   -3.965914    1.498907
H     -4.946829   -2.545614    2.775636
H      2.471987   -2.400764    0.318021
