62

C     -1.629815   -0.212610    2.353367
C     -1.317272   -2.418961    1.621511
C     -2.997724   -2.084525   -0.900211
C     -1.061652   -1.907650   -2.199990
C     -1.816883   -0.603399    3.648071
C     -1.503788   -2.835157    2.924872
C     -3.532891   -2.984169   -1.830879
C     -1.571897   -2.795559   -3.132422
C     -1.411448    4.895448    0.842654
C     -2.316939    4.088772   -1.166500
C      6.060333    0.418099   -0.493598
C      5.165386   -1.782666   -0.157361
C      1.589601   -1.702656   -0.167498
C     -1.372680   -1.090862    1.290606
C     -1.748751   -1.538326   -1.083117
C     -1.752827   -1.944091    3.943828
C     -2.813113   -3.340869   -2.954090
C     -2.207923    5.091396   -0.260433
C      6.229144   -0.927471   -0.288225
C      1.294176   -0.399597   -0.363963
C     -0.742905    3.704605    1.017104
C     -1.632887    2.884668   -0.978880
C      4.751289    0.944881   -0.573752
C      3.868470   -1.286882   -0.232714
C     -1.227890   -0.580465   -0.089053
C     -0.037160    0.193524   -0.460394
C     -0.833460    2.644104    0.098949
C      3.684238    0.062399   -0.438686
C      2.378985    0.491548   -0.502295
C     -0.084780    1.472594    0.331910
O     -1.942789   -2.337453    5.260966
O     -3.356885   -4.249569   -3.891169
O     -2.903384    6.282889   -0.475115
O      7.543713   -1.427821   -0.212175
O      0.066849    3.504390    2.138187
O     -1.813879    1.948284   -1.961264
O      4.603995    2.282613   -0.777916
O      2.165812    1.710357   -0.691264
O      0.698803    1.418066    1.359998
O      2.844918   -2.093922   -0.109046
H     -1.717983    0.851576    2.171741
H     -1.143849   -3.198037    0.855948
H     -3.638628   -1.868228   -0.053877
H     -0.081130   -1.514820   -2.423803
H     -2.014247    0.140073    4.436226
H     -1.456509   -3.891631    3.173222
H     -4.512023   -3.424339   -1.705484
H     -1.000610   -3.062898   -3.999224
H     -1.308369    5.671459    1.572093
H     -2.941922    4.217767   -2.049487
H      6.913378    1.104503   -0.598427
H      5.318898   -2.832829    0.002925
H      0.805913   -2.474061   -0.054791
H     -2.079760    0.234678   -0.106831
H     -0.194747    0.518033   -1.538687
H     -1.902778   -3.308093    5.511119
H     -3.897617   -3.788618   -4.635106
H     -3.836051    6.311177   -0.081240
H      7.718454   -2.416902   -0.061026
H      0.136291    4.261203    2.801656
H     -2.382357    2.048562   -2.780837
H      3.901557    2.927460   -0.876122
