39

C      4.761518   -0.329302   -1.387732
C      3.768086    0.190737    0.919431
C     -0.752890    0.089591    1.860543
C     -2.082703   -2.327662    0.472774
C      1.265505    0.760836   -0.242424
C      2.412512    0.353386   -1.087184
C      0.156488   -0.253706   -0.434592
C     -2.931382    1.371013    0.756093
C     -2.331079    0.883100   -1.397357
C      3.601930    0.079360   -0.564299
C     -1.684616    1.326384   -0.103806
C     -3.396902   -0.079063    0.546481
C     -3.094170   -0.340763   -0.866099
C     -1.049801    0.061721    0.372915
C     -2.215798   -0.881915    0.167025
H      5.453879   -0.965969   -0.807560
H      5.299432    0.569541   -1.792912
H      4.395342   -0.878673   -2.278360
H      4.755232   -0.162417    1.249766
H      3.541371    1.211994    1.260882
H      3.020559   -0.500890    1.369933
H     -1.700888   -0.065255    2.397149
H     -0.126410   -0.816860    2.061959
H     -0.222630    1.005652    2.131890
H     -1.959507   -2.871508   -0.509159
H     -1.157975   -2.556365    1.039241
H     -2.995545   -2.767198    0.949286
H      1.591167    0.835926    0.795257
H      0.938395    1.761827   -0.593192
H      2.321332    0.262666   -2.179608
H     -0.008503   -0.361900   -1.517792
H      0.597632   -1.244591   -0.104068
H     -2.744945    1.603323    1.796477
H     -3.670125    2.003162    0.243543
H     -1.631712    0.567384   -2.169808
H     -3.068373    1.636326   -1.762546
H     -1.098669    2.204964   -0.137514
H     -4.251978   -0.453924    1.090660
H     -3.703779   -0.920932   -1.545291
