25

C     -0.899802   -1.907556    0.117394
C      3.148627    0.928022    0.856092
C      3.363296    0.031528   -0.194293
C      1.879176    1.173410    1.326761
C      2.255763   -0.584139   -0.725511
C      0.800309    0.526386    0.755494
C     -2.043389    1.319984   -1.050492
C     -0.192127   -1.073246   -0.901624
C      0.961342   -0.370618   -0.287581
C     -3.106620    0.792707   -0.165507
O     -4.245418    0.577824   -0.674348
O     -2.871511    0.543055    1.169041
S     -1.197547    0.005449   -1.873517
H     -0.995359   -1.431866    1.114713
H     -0.264040   -2.826680    0.295952
H     -1.884813   -2.273935   -0.225970
H      4.028601    1.404334    1.263159
H      4.366665   -0.167653   -0.572526
H      1.746731    1.882759    2.153024
H      2.391935   -1.296706   -1.555305
H     -0.164223    0.753829    1.164507
H     -2.527022    2.000794   -1.814857
H     -1.402865    1.998550   -0.452446
H      0.275459   -1.843430   -1.612705
H     -3.423168   -0.162800    1.640280
