33

C      4.591158   -0.633956   -0.534105
C      1.954578    0.783059   -0.486943
C     -3.164795   -1.746330   -1.371692
C      3.488217   -0.958117    0.416756
C     -1.220449    2.298347    1.503636
C     -2.443520    2.636391    0.988898
C     -0.735572    1.043219    1.237544
C     -3.144003    1.741828    0.237461
C     -0.823604   -1.241113    0.340010
C      2.106069   -0.648062   -0.150033
C     -3.460873   -0.407590   -0.840545
C     -1.426095    0.098048    0.468431
C     -2.654150    0.460075   -0.037970
O     -4.639544    0.038066   -1.161208
S      0.882552   -1.269185    1.002115
H      5.305478    0.128218   -0.105178
H      5.203221   -1.556650   -0.766086
H      4.163524   -0.313839   -1.495833
H      2.793622    1.154850   -1.146524
H      0.983845    0.943270   -1.002831
H      1.990606    1.464613    0.381932
H     -4.127704   -2.129940   -1.887844
H     -2.866916   -2.492658   -0.647384
H     -2.417481   -1.668103   -2.203874
H      3.546842   -2.019565    0.724765
H      3.607189   -0.297812    1.312389
H     -0.657005    2.997430    2.099361
H     -2.834806    3.615465    1.189345
H      0.199158    0.766566    1.671371
H     -4.124830    2.040942   -0.163871
H     -1.382209   -1.941146    1.004029
H     -0.745292   -1.610701   -0.696089
H      2.052789   -1.275620   -1.103527
