26

C     -2.223764    0.683998    1.185963
C     -1.459924   -1.085371   -2.102013
C     -2.309525    0.384458   -0.287375
C      1.895163    1.040047   -0.392388
C      1.926712   -0.732955    1.162933
C      0.619470    0.640962   -0.758533
C      0.653726   -1.129566    0.796155
C      3.891050    0.746236    0.976798
C     -1.381058   -0.781457   -0.641852
C      2.544089    0.339835    0.577214
C     -0.015228   -0.432427   -0.181974
O      4.456131    1.719998    0.447800
H     -3.180378    0.351225    1.672170
H     -2.060606    1.761441    1.396498
H     -1.361413    0.133256    1.598452
H     -0.686017   -0.538023   -2.668593
H     -1.367872   -2.187962   -2.250486
H     -2.469243   -0.780774   -2.470610
H     -1.967803    1.295438   -0.822443
H     -3.338559    0.193391   -0.607267
H      2.360140    1.890566   -0.870417
H      2.426266   -1.298801    1.932612
H      0.122520    1.211012   -1.530394
H      0.179287   -1.968821    1.259142
H      4.441434    0.214029    1.745644
H     -1.694598   -1.669737   -0.047000
