33

C     -4.576283    0.036737   -0.211314
C     -2.013936   -1.150781   -0.855774
C      4.921179   -0.556257   -1.619509
C     -3.589470   -0.373449    0.848916
C      1.158054    1.226006   -0.839881
C      1.013196    0.186680    1.309328
C      2.385059    0.639072   -1.082582
C      2.238720   -0.395848    1.059738
C     -0.846697    1.678179    0.533720
C     -2.160869   -0.236980    0.368924
C      4.213480   -0.808279   -0.349239
C      0.463206    1.009597    0.347171
C      2.926214   -0.179769   -0.118611
O      4.708851   -1.562469    0.542379
O     -1.904245    1.037940   -0.050808
H     -5.008003   -0.864746   -0.676271
H     -5.395074    0.634287    0.239423
H     -4.027249    0.667225   -0.945957
H     -1.031331   -0.927913   -1.313958
H     -2.031915   -2.211499   -0.581084
H     -2.778260   -0.862274   -1.605046
H      5.327343    0.493264   -1.571919
H      4.260739   -0.616081   -2.506400
H      5.736758   -1.290712   -1.789591
H     -3.748286    0.236274    1.756599
H     -3.777430   -1.428825    1.126689
H      0.717413    1.880115   -1.600615
H      0.505607   -0.004295    2.244028
H      2.905778    0.833795   -2.034379
H      2.673809   -1.038811    1.805294
H     -1.003885    1.923992    1.605425
H     -0.753953    2.676977    0.021933
H     -1.508521   -0.651153    1.136223
