33

C      3.217360   -0.187988    1.161225
C      2.623909   -1.043323   -2.504580
C      3.419793   -0.975126   -0.138720
C     -3.545656   -1.805897    0.983596
C     -2.287697   -2.106339    0.530340
C     -2.507040    2.816599    0.620655
C     -3.885130   -0.478153    1.108799
C     -3.382041    1.814671    0.933125
C     -1.374279   -1.126401    0.204002
C     -1.264925    2.507397    0.173073
C      2.505438   -0.348666   -1.190668
C     -2.967639    0.493943    0.780976
C     -1.685650    0.213599    0.319122
C     -0.791613    1.197210   -0.000240
C      0.553020    0.966052   -0.484645
O      1.290733    1.993887   -0.747315
O      1.199157   -0.207855   -0.720272
H      3.955641   -0.444305    1.920265
H      3.361095    0.892687    0.867469
H      2.216871   -0.340771    1.567284
H      3.541827   -0.667260   -3.015865
H      1.770032   -0.739598   -3.141609
H      2.727796   -2.136419   -2.430490
H      3.160331   -2.027600    0.054999
H      4.477990   -0.819340   -0.428300
H     -4.261279   -2.603670    1.239187
H     -2.004204   -3.136861    0.425967
H     -2.777639    3.862694    0.720429
H     -4.880075   -0.253192    1.467253
H     -4.365285    2.079301    1.287464
H     -0.390975   -1.387510   -0.150333
H     -0.560210    3.303864   -0.078611
H      2.910341    0.694369   -1.333580
