21

C     -2.014421    0.393037   -0.820618
C     -1.384360   -0.723438   -0.121304
C      1.952838    0.402707    0.749536
C     -2.417194   -1.466977    0.755238
C      3.159256    0.774144   -0.081135
C      0.778239    0.012622   -0.154252
F     -1.072593   -1.702972   -1.099861
F      2.242825   -0.593670    1.634120
F      1.575660    1.522926    1.462853
F     -2.961018   -0.636376    1.690959
F     -3.344723   -1.977134   -0.131187
F     -1.744738   -2.499630    1.359711
F      2.870596    1.836509   -0.899345
F      3.588243   -0.309008   -0.842687
F      4.186701    1.093302    0.784086
F      1.172502   -1.089938   -0.934271
F      0.636256    1.042757   -1.035774
O     -2.949376    0.144921   -1.640053
O     -1.644197    1.688859   -0.626225
O     -0.293931   -0.364872    0.588906
H     -2.336563    2.452231   -0.638696
