35

C     -5.806587    0.027141    0.732538
C     -5.068474   -1.017335    0.210792
C     -5.267272    1.267860    0.783662
C      4.949781    0.648062   -0.814991
C      5.554666   -0.626454   -0.855349
C     -3.810668   -0.793330   -0.251516
C     -3.973343    1.452125    0.304982
C      3.587346    0.731733   -0.482630
C      4.789042   -1.719840   -0.566380
C      0.489056    0.099682   -0.905566
C     -3.200030    0.450523   -0.230362
C      2.824686   -0.340440   -0.195169
C      1.434561   -0.374329    0.232413
C      3.474063   -1.611666   -0.240189
C     -0.901020   -0.066088   -0.435281
C      1.241666    0.827407    1.211558
Cl     2.488041   -3.018159    0.068673
N     -1.893648    0.676176   -0.707260
O     -1.209731   -1.169072    0.420243
O      1.009713    0.604150    2.361635
O      1.368182    2.084945    0.599986
H     -6.786207   -0.154789    1.102609
H     -5.500663   -2.010773    0.137084
H     -5.850719    2.111889    1.202447
H      5.572615    1.480712   -1.032612
H      6.613793   -0.741081   -1.110609
H     -3.251431   -1.639911   -0.689287
H     -3.557713    2.461764    0.359179
H      3.238046    1.773487   -0.469188
H      5.296059   -2.719838   -0.624487
H      0.732637   -0.446306   -1.831619
H      0.676568    1.158030   -1.128872
H      1.069869   -1.241327    0.758339
H     -1.907314   -1.087597    1.156824
H      1.574432    2.922647    1.129492
