35

C      5.624704   -0.415112    0.623908
C      5.123754    0.852833    0.718402
C      4.918963   -1.455605    0.077023
C     -4.714654    1.031749   -0.560894
C     -5.504470   -0.027889   -0.069672
C      3.836266    1.105678    0.233898
C      3.666979   -1.212046   -0.394118
C     -3.348446    0.950760   -0.385756
C     -4.901869   -1.110341    0.572772
C     -0.524693   -0.258681   -0.727324
C      3.146310    0.050992   -0.317054
C     -2.735460   -0.096476    0.237090
C     -1.297673   -0.132191    0.586215
C     -3.554252   -1.153311    0.729631
C      0.894829   -0.387389   -0.307403
C     -0.944418    1.301863    1.010158
Cl    -2.733817   -2.548247    1.465410
N      1.813408    0.277316   -0.805463
O      1.146918   -1.331143    0.691837
O      0.020116    1.914213    0.516503
O     -1.728273    1.931675    1.960370
H      6.636561   -0.569191    1.004429
H      5.692429    1.652042    1.146854
H      5.376293   -2.440304    0.009009
H     -5.180683    1.904828   -1.031319
H     -6.564092    0.007452   -0.171852
H      3.452725    2.106567    0.327516
H      3.056107   -2.002040   -0.827325
H     -2.741953    1.805196   -0.735554
H     -5.503550   -1.913456    0.939203
H     -0.800029   -1.181068   -1.274311
H     -0.739359    0.591865   -1.376903
H     -0.988175   -0.851899    1.278383
H      1.996173   -1.369890    1.244743
H     -1.896669    2.971251    1.843249
