24

C     -2.954403    0.820387   -0.543146
C     -1.785614   -0.798197    0.851654
C      3.314400   -0.900829    0.291851
C      2.822980    0.078155    1.127536
C      2.506689   -1.239920   -0.772953
C      1.604507    0.687649    0.924321
C      1.291988   -0.637700   -0.982283
C     -1.658086    0.067721   -0.335673
C      0.812519    0.335451   -0.144424
C     -0.492441    1.003721   -0.342655
Br    -0.426818    2.012190   -1.992699
H     -3.423784    0.622356   -1.504458
H     -2.736522    1.909597   -0.459931
H     -3.693031    0.600666    0.257308
H     -2.282070   -1.779086    0.594312
H     -0.850075   -1.059668    1.363223
H     -2.455529   -0.357247    1.646129
H      4.282190   -1.377913    0.462037
H      3.431327    0.370998    1.976392
H      2.903161   -2.019493   -1.434340
H      1.271907    1.469078    1.638667
H      0.704106   -0.955203   -1.845782
H     -1.544474   -0.597959   -1.241303
H     -0.642927    1.745248    0.466220
