41

C     -4.546516    2.295225   -0.179076
C      4.098315   -2.025821   -0.730347
C     -4.860607    0.902931    0.308570
C     -4.312411   -0.149587   -0.596977
C     -2.804455   -0.074388   -0.732642
C     -2.103334   -0.242193    0.569971
C     -0.610179   -0.150030    0.359335
C     -0.046094   -1.176804   -0.559272
C      1.432442   -0.993050   -0.701738
C      2.225747   -1.107360    0.550836
C      4.031158    0.395503   -0.371171
C      3.704266   -0.914297    0.261172
C      3.722380    1.572240    0.459482
O      3.256358    1.430937    1.608041
O      3.932223    2.877652    0.010263
H     -5.487390    2.903084   -0.315606
H     -3.946241    2.839378    0.578766
H     -4.054118    2.310544   -1.173129
H      5.164218   -2.286418   -0.629447
H      3.897303   -1.654137   -1.760228
H      3.430806   -2.902135   -0.574984
H     -5.973260    0.788913    0.307059
H     -4.548866    0.745437    1.361271
H     -4.538100   -1.150601   -0.175798
H     -4.818224   -0.095766   -1.573318
H     -2.562053    0.919897   -1.159425
H     -2.454466   -0.846358   -1.440022
H     -2.297808   -1.213328    1.058943
H     -2.364138    0.536169    1.316478
H     -0.067253   -0.238832    1.346342
H     -0.354947    0.855957   -0.069618
H     -0.275714   -2.215257   -0.228011
H     -0.465517   -1.086485   -1.599567
H      1.608376   -0.030050   -1.227823
H      1.824343   -1.788475   -1.402513
H      2.140061   -2.172388    0.894167
H      1.912942   -0.403993    1.327003
H      3.557522    0.539723   -1.362905
H      5.143258    0.432229   -0.550243
H      4.297634   -1.061477    1.163113
H      4.112339    3.633409    0.644816
