39

C      3.545463   -0.307442   -0.882390
C     -1.295030    2.351094    0.574507
C     -2.109192   -0.755360    1.268906
C     -0.105941   -2.119139    1.086289
C     -1.232722    1.107904   -1.553927
C     -1.986387   -0.187576   -1.481968
C      2.205796    0.958357    0.982187
C      0.863192    0.603265    1.590801
C      0.304231   -1.197116   -1.477018
C      2.278318    0.056403   -0.195072
C     -0.489483    1.429118   -0.271529
C     -1.095628   -1.261360   -0.939742
C      1.082231   -0.353185   -0.519525
C     -0.849534   -0.926694    0.541189
C      0.053037    0.232667    0.414313
H      4.287788   -0.626820   -0.109949
H      3.993627    0.619638   -1.340157
H      3.405739   -1.094998   -1.630065
H     -1.330210    2.131298    1.633335
H     -0.968504    3.428965    0.482328
H     -2.354539    2.362881    0.187105
H     -2.824324   -1.565451    0.933988
H     -2.644057    0.183351    1.149187
H     -1.931029   -1.002924    2.356358
H      0.780853   -2.386019    0.491096
H     -0.815566   -2.991410    0.997992
H      0.115885   -2.038404    2.166721
H     -0.579981    1.097934   -2.439482
H     -1.988225    1.923506   -1.725165
H     -2.285173   -0.447145   -2.525548
H     -2.877007   -0.045211   -0.863627
H      3.030620    0.756310    1.696524
H      2.249671    2.024925    0.658730
H      0.528436    1.479083    2.158829
H      1.049745   -0.206361    2.315792
H      0.776250   -2.214687   -1.566525
H      0.339511   -0.773019   -2.514917
H      0.408770    2.025908   -0.621261
H     -1.536631   -2.272286   -1.028308
