24

C     -1.276643    0.431301   -1.384357
C      3.383935   -0.358293   -0.103812
C      2.957456    0.898450    0.277437
C      2.484917   -1.369813   -0.444888
C      1.592621    1.140804    0.315629
C      1.130440   -1.092195   -0.395380
C     -1.555065   -0.410409    0.907589
C     -3.005971   -0.021217    1.027775
C     -0.741912    0.444818    0.033745
C      0.684186    0.157107   -0.017000
Cl    -3.883029   -0.049614   -0.484677
H     -2.014646    1.248643   -1.571503
H     -1.714329   -0.542887   -1.674195
H     -0.424821    0.575815   -2.104561
H      4.445771   -0.599090   -0.149860
H      3.693167    1.649310    0.532531
H      2.808140   -2.351068   -0.742841
H      1.296958    2.140526    0.620046
H      0.363477   -1.811536   -0.641441
H     -1.560117   -1.447457    0.453447
H     -1.182189   -0.523203    1.945056
H     -3.525267   -0.660503    1.798666
H     -3.080195    1.030829    1.436220
H     -0.876884    1.519682    0.366374
