21

C      2.551818    0.861438    0.507449
C     -3.110436    0.410799    0.220477
C     -0.296652    0.010400    0.132698
C      0.880397   -0.685758   -0.541801
C     -1.360880   -1.048336    0.295240
C      2.028237    0.267428   -0.767116
Cl     3.351967   -0.670482   -1.504733
O     -2.496857   -0.598942    0.901313
H      2.810700    0.106691    1.272396
H      3.527941    1.361846    0.247546
H      1.916769    1.661168    0.921997
H     -2.478472    1.306137    0.109482
H     -4.012333    0.715051    0.814377
H     -3.438550    0.036277   -0.777075
H     -0.042382    0.424875    1.112001
H     -0.688119    0.767011   -0.588210
H      1.182266   -1.575803    0.007788
H      0.514806   -0.998950   -1.542095
H     -1.603947   -1.519769   -0.694861
H     -0.982311   -1.909332    0.916969
H      1.746038    1.078254   -1.439350
