27

C     -2.767068   -0.974010   -0.275597
C     -2.051100    1.238793   -0.827828
C      3.719788    0.110765   -0.244680
C      3.188647   -0.938673    0.467570
C      2.857917    1.018228   -0.815266
C      1.844269   -1.057617    0.592496
C      1.495350    0.869716   -0.670296
C     -0.857389    0.072126    1.653226
C     -1.505190   -0.174423   -0.753088
C      0.921090   -0.157516    0.029103
C     -0.473829   -0.433347    0.250541
Cl    -1.136412    1.814890    1.684449
H     -2.412820   -1.921532    0.160955
H     -3.408255   -1.181732   -1.155718
H     -3.343600   -0.375303    0.429738
H     -2.891270    1.397251   -0.102060
H     -2.580329    1.312306   -1.830665
H     -1.331495    2.039198   -0.827901
H      4.787539    0.212706   -0.348731
H      3.895009   -1.640984    0.907689
H      3.259968    1.856554   -1.383521
H      1.482891   -1.918212    1.175319
H      0.856174    1.585218   -1.128771
H      0.052987   -0.124996    2.287465
H     -1.727485   -0.508456    2.036614
H     -1.333840   -0.536517   -1.758353
H     -0.541546   -1.584433    0.447307
