27

C     -2.611488   -0.346547    1.279774
C     -1.762046    1.623457    0.198789
C      3.665819    0.141821   -0.433163
C      2.758034    0.792058   -1.209790
C      3.192936   -0.744365    0.507887
C      1.379364    0.580914   -1.072474
C      1.837512   -0.947886    0.638557
C     -1.217927   -1.041413   -1.134642
C     -1.311290    0.395228    0.902686
C      0.877107   -0.294669   -0.144823
C     -0.520539   -0.592295    0.101444
Cl    -1.598457    0.262751   -2.247734
H     -2.312991   -1.332772    1.632748
H     -3.216236   -0.366479    0.354037
H     -3.140892    0.203263    2.085062
H     -1.072425    2.088073   -0.496932
H     -2.748002    1.450846   -0.329407
H     -2.061789    2.366593    1.005250
H      4.737262    0.320843   -0.556260
H      3.101021    1.500444   -1.964478
H      3.928004   -1.252385    1.116346
H      0.681050    1.101154   -1.697448
H      1.538713   -1.667436    1.409327
H     -2.144516   -1.594517   -0.872791
H     -0.592528   -1.782136   -1.698671
H     -0.847373    0.666440    1.847010
H     -0.538326   -1.530984    0.779694
