22

C      1.735323    1.148296    1.101604
C      2.890269    0.612505    0.573800
C      0.475713    0.634832    0.805585
C      2.826765   -0.469797   -0.280734
C     -2.096990   -0.351748   -0.108691
C      0.418220   -0.442851   -0.043253
C      1.580061   -0.968565   -0.564856
C     -0.831133   -1.101808   -0.402598
C     -2.244300    0.924142   -0.805025
F      1.544258   -2.040703   -1.431331
O     -0.875590   -2.342570    0.269198
O     -2.094070    0.983128   -2.061950
O     -2.542552    2.090755   -0.143412
H      1.777275    2.013851    1.793258
H      3.856691    1.023455    0.821352
H     -0.410067    1.081433    1.245675
H      3.756675   -0.894990   -0.702344
H     -2.147553   -0.233028    1.011736
H     -2.941342   -1.066159   -0.318468
H     -0.817182   -1.349601   -1.489476
H     -1.360130   -2.257872    1.151124
H     -2.500340    3.007294   -0.591630
