26

C      2.547312   -0.940050    1.142119
C     -4.215824    0.860338   -0.007740
C     -3.196913    1.682342    0.413873
C     -3.894605   -0.385517   -0.492041
C     -1.867950    1.255366    0.348972
C     -2.565363   -0.803275   -0.553135
C      2.180341    0.252766    0.273789
C     -1.533991    0.009380   -0.134323
C      2.884094    0.116054   -1.004710
C     -0.127641   -0.394137   -0.183140
N      3.658460   -0.849589   -1.232833
N      0.779256    0.380068    0.209587
O      0.251028   -1.649671   -0.666704
S      2.610579    1.383950   -2.253957
H      3.643822   -0.927866    1.393008
H      2.029833   -0.897151    2.126911
H      2.258422   -1.887022    0.674970
H     -5.231497    1.222982    0.056758
H     -3.392664    2.669261    0.802402
H     -4.703102   -1.020999   -0.819705
H     -1.115980    1.923642    0.685405
H     -2.314006   -1.779514   -0.932662
H      2.597968    1.145340    0.838502
H      3.849385   -1.587906   -0.565821
H      1.009487   -1.715221   -1.362670
H      3.859548    1.936428   -2.622168
