22

C      2.674317   -0.245304    1.153280
C      3.364710    0.262608    0.069167
C      1.256203   -0.228883    1.089208
C      2.703790    0.783126   -1.075870
C     -1.611856   -0.961003   -0.208256
C      0.577774    0.267229   -0.001050
C      1.329834    0.761826   -1.067072
C     -0.858774    0.403393   -0.028900
C     -3.073927   -0.650413   -0.180633
F      0.707298    1.256250   -2.200648
O     -1.272455    0.785896    1.293088
O     -3.731559   -1.141201    0.806904
O     -3.687387    0.101967   -1.109706
H      3.203375   -0.623843    1.992295
H      4.440318    0.293374    0.088666
H      0.730039   -0.636701    1.961395
H      3.277380    1.143132   -1.903646
H     -1.285307   -1.750198    0.416396
H     -1.406092   -1.279072   -1.284930
H     -1.298700    1.126660   -0.719235
H     -1.374794   -0.055448    1.839263
H     -4.664188    0.386607   -1.006082
