18

C     -0.352398    1.927732    0.497480
C     -1.871330   -0.992394    0.070838
C      1.305946    0.207815   -0.085590
C      1.636748   -1.177962   -0.558164
C     -0.160915    0.491911   -0.005189
Br     0.939472   -2.527475    0.607013
O     -0.830530   -0.416291    0.779245
H     -1.152692    1.908000    1.263791
H     -0.516063    2.633903   -0.316558
H      0.583524    2.237730    1.033133
H     -1.574062   -1.522124   -0.830528
H     -2.626989   -0.221010   -0.244366
H     -2.418815   -1.647207    0.784107
H      1.709922    0.288698    0.958996
H      1.834884    0.915064   -0.759300
H      1.362676   -1.344168   -1.625664
H      2.753980   -1.261986   -0.533481
H     -0.623358    0.499762   -1.035765
