25

C      2.643708   -1.076378    0.073681
C     -2.408311   -0.547610    0.410767
C     -1.071563   -1.086090    0.848273
C     -2.335502    0.812949   -0.204840
C     -0.136499    0.125153    0.955649
C     -1.152675    0.947976   -1.136718
C      2.576427    0.389804   -0.323361
C      1.309008    0.731834   -1.015699
Br     4.112214    0.805995   -1.396241
N      0.052440    0.598785   -0.399471
O      1.404635    1.156795   -2.207960
H      2.893717   -1.177584    1.157591
H      1.713141   -1.606095   -0.121769
H      3.432856   -1.598248   -0.527702
H     -2.842035   -1.263136   -0.327887
H     -3.066277   -0.498928    1.326323
H     -0.667758   -1.789463    0.100100
H     -1.108282   -1.594076    1.835678
H     -2.378560    1.643481    0.540108
H     -3.247044    0.971245   -0.849994
H      0.778798   -0.103633    1.494028
H     -0.713154    0.936101    1.483060
H     -1.336125    0.218491   -1.972154
H     -1.066154    1.970083   -1.507470
H      2.612994    1.032551    0.603045
