18

C     -0.079854    1.587439    0.127550
C      2.410577   -0.499471   -0.458735
C     -0.733839   -0.708897    0.883229
C     -2.141896   -0.624771    0.425037
C      0.241663    0.111884    0.098761
Br    -2.929580    1.114012    0.472311
O      1.537871   -0.029879    0.495254
H      0.876649    2.141952    0.043288
H     -0.729526    1.896000   -0.712917
H     -0.486173    1.836751    1.126111
H      2.088286   -1.517666   -0.815367
H      3.389254   -0.679822    0.053330
H      2.611882    0.185423   -1.283668
H     -0.419145   -1.772949    0.790043
H     -0.707859   -0.486980    1.969034
H     -2.743896   -1.275803    1.127141
H     -2.316919   -1.082049   -0.575865
H      0.132505   -0.195173   -0.975075
