26

C     -4.243614    1.263615    0.145346
C     -4.155786   -0.012064    0.673454
C     -3.125996    1.888921   -0.392284
C     -2.945044   -0.675998    0.668494
C     -1.953823    1.191300   -0.373481
C      1.814354   -0.610989   -0.502601
C     -1.806738   -0.078055    0.137672
C      2.765866   -0.012737    0.512677
C     -0.515431   -0.749423    0.116555
C      4.090659   -0.630605    0.294343
N      0.477297   -0.143006   -0.382944
O      2.829525    1.375435    0.395878
O     -0.440023   -2.019559    0.645246
O      4.197266   -1.874085    0.366403
O      5.201129    0.130207    0.015320
H     -5.178780    1.775611    0.149507
H     -5.031323   -0.496974    1.092510
H     -3.166093    2.884726   -0.811375
H     -2.845369   -1.672025    1.073362
H     -1.065797    1.655555   -0.786632
H      2.190304   -0.312342   -1.520227
H      1.875576   -1.700427   -0.435485
H      2.441323   -0.270741    1.532980
H      2.215483    1.729264   -0.293778
H      0.451248   -2.433969    0.858665
H      5.923786   -0.201635   -0.602253
