28

C      3.343325   -0.455243    0.323820
C      0.210641   -1.853354   -0.557385
C     -3.501294    1.306746   -0.659170
C     -2.383529    1.829425   -1.282788
C     -3.455214    0.236402    0.192404
C     -1.172202    1.225558   -1.017437
C     -2.219424   -0.354143    0.442624
C      2.465917    0.498144   -0.370087
C     -1.093963    0.144900   -0.162675
C      0.397360   -0.677487    1.550709
C      0.264530   -0.489054    0.083375
N      1.238136    0.394493   -0.407539
O      3.093339    1.571988   -1.013853
O     -0.232981   -1.514475    2.225925
O      1.290121    0.125634    2.290695
H      3.814577    0.032054    1.226494
H      2.800950   -1.362161    0.598393
H      4.229767   -0.702504   -0.340740
H      0.914517   -2.558583   -0.111779
H      0.261656   -1.807969   -1.665929
H     -0.821018   -2.252477   -0.309869
H     -4.457810    1.772880   -0.860887
H     -2.413477    2.660680   -1.947600
H     -4.360629   -0.130504    0.651439
H     -0.263352    1.622981   -1.501354
H     -2.203083   -1.198547    1.112040
H      2.581062    2.152783   -1.630626
H      1.672079   -0.218164    3.141799
