28

C     -3.045558    1.332255   -0.609534
C     -0.603010   -1.578077    1.173392
C     -3.311157   -0.053981   -0.099634
C      3.816070    0.678328    0.437847
C      3.450568   -0.663622    0.400821
C      2.891077    1.614898    0.016491
C      2.194390   -1.015670   -0.048590
C      1.635219    1.262420   -0.432769
C     -0.061212   -0.484940   -0.943578
C     -1.094073   -0.557114    0.150826
C      1.262430   -0.073283   -0.473032
O     -2.304087   -0.955404   -0.401313
H     -4.044321    1.855718   -0.639429
H     -2.419458    1.934475    0.069395
H     -2.666064    1.355806   -1.644583
H      0.365229   -1.235757    1.588948
H     -0.451973   -2.567744    0.690670
H     -1.350042   -1.632249    2.013110
H     -4.261482   -0.398504   -0.556578
H     -3.475141    0.034351    1.007640
H      4.808535    0.941246    0.794066
H      4.180154   -1.391261    0.732340
H      3.177414    2.671523    0.045097
H      1.960502   -2.083555   -0.056455
H      0.932803    2.019146   -0.756160
H      0.038600   -1.527486   -1.354038
H     -0.371886    0.142240   -1.791653
H     -1.253525    0.376239    0.686703
