27

C     -2.754777   -3.007810    0.295858
C     -2.679814    2.417559   -0.391437
C      1.082738   -0.951231    0.052103
C     -0.139395   -1.620402    0.131543
C     -0.152918    1.057207   -0.208031
C      1.074772    0.397606   -0.119099
C     -1.348635   -0.999796    0.047540
C     -1.338046    0.375114   -0.126700
C      2.302183    1.196953   -0.220400
C      3.510670    0.412148    0.090021
O      2.238006    2.323642    0.624815
O      4.237911    0.759820    1.080845
O      3.936016   -0.683082   -0.607729
O     -2.563126   -1.640258    0.123363
O     -2.540358    1.043724   -0.216675
H     -3.623896   -3.345694   -0.317767
H     -1.912400   -3.644865    0.027834
H     -2.983814   -3.172856    1.388575
H     -1.971689    2.914507    0.332141
H     -3.698800    2.703908   -0.009372
H     -2.504049    2.783382   -1.405339
H      1.977332   -1.544434    0.135231
H     -0.123346   -2.695342    0.267883
H     -0.170476    2.128004   -0.343838
H      2.414345    1.551754   -1.280602
H      2.842517    2.172188    1.401631
H      4.889047   -0.931748   -0.752394
