23

C     -2.490658   -1.029148    0.372188
C     -1.136021   -1.194899    0.188203
C     -3.092494    0.094817   -0.134247
C     -1.012151    0.855490   -0.985310
C      1.049017   -0.443220   -0.679208
C     -0.395886   -0.261540   -0.485709
C     -2.376661    1.054427   -0.817894
C      1.757168    0.192553    0.497458
C      3.222535    0.027056    0.334122
O     -2.992612    2.203155   -1.335302
O      1.302074   -0.259309    1.713031
O      3.736095    0.411425   -0.747292
O      4.052398   -0.518578    1.287891
H     -3.081057   -1.778916    0.912693
H     -0.646531   -2.088716    0.588710
H     -4.163878    0.207964    0.021298
H     -0.434337    1.612746   -1.527433
H      1.417798    0.088488   -1.589827
H      1.321561   -1.510320   -0.776196
H      1.553449    1.287895    0.445052
H     -3.984246    2.301805   -1.187903
H      1.448347   -1.205986    1.882844
H      4.946091   -0.047188    1.498579
