71

C     -4.050717   -4.423815    0.259938
C     -4.632554    4.983691    0.923237
C     -1.203148   -1.394715   -2.656802
C     -1.631198   -2.429383   -3.459229
C     -0.799861    1.755870    1.593030
C     -2.355732   -2.294043   -0.777617
C     -2.812442    2.894125    0.691961
C     -3.019690    1.037431   -1.346984
C     -2.065545   -0.116252    2.515379
C      5.836440    0.515710    2.491758
C      1.065297   -0.828063    0.570910
C     -1.549553   -1.303704   -1.318113
C     -1.916253    1.858375    0.571414
C     -0.719216    0.281860    1.923576
C     -2.015703    0.940043   -0.433996
C     -0.446331   -0.598485    0.745783
C     -2.433427   -3.402159   -2.893465
C     -3.933166    2.071604   -1.245395
C     -2.790411   -3.331288   -1.563231
C     -3.831594    3.006259   -0.221746
C      5.061645    0.196270    1.233284
C     -1.048986   -0.160826   -0.548740
C      5.737807    0.765425    0.000723
C      5.050791    0.134747   -1.198184
C      3.585287    0.545404   -1.137570
C      3.063181    0.124185    0.220791
O     -2.123948   -1.447113    2.863619
O      5.151644   -0.027987    3.563862
O     -2.875787   -4.451080   -3.678734
O     -4.958869    2.184654   -2.164858
O      7.097640    0.549416    0.001552
O      5.645370    0.489496   -2.397736
O      2.924501   -0.269065   -2.077835
O     -3.586307   -4.319567   -1.051318
O     -4.742506    4.049730   -0.108302
O      1.715861    0.396469    0.370460
O      3.772443    0.725567    1.262197
H     -3.338968   -3.957954    0.966174
H     -4.184453   -5.470623    0.600771
H     -5.071557   -3.961878    0.318235
H     -3.663609    5.541345    0.916889
H     -4.742767    4.513527    1.909584
H     -5.425770    5.742926    0.819721
H     -0.566891   -0.634279   -3.129145
H     -1.331317   -2.453496   -4.501216
H      0.158081    2.104076    1.155677
H     -1.101695    2.286608    2.500405
H     -2.608347   -2.187953    0.266878
H     -2.735314    3.635108    1.500130
H     -3.134650    0.313594   -2.176246
H     -2.875206    0.094223    1.787943
H     -2.303914    0.520236    3.409708
H      6.082491    1.571571    2.589559
H      6.811313   -0.035180    2.396179
H      1.500803   -1.281341    1.468112
H      1.225151   -1.411047   -0.359288
H      0.081600    0.101229    2.674409
H     -0.829364   -1.610473    1.008445
H      4.981322   -0.887569    1.095455
H     -0.191390    0.285608   -1.143016
H      5.463646    1.853443   -0.020950
H      5.085438   -0.962847   -1.048108
H      3.423848    1.599277   -1.362804
H      3.288253   -0.980115    0.296112
H     -1.212476   -1.815952    3.074096
H      5.416219   -0.972140    3.750566
H     -2.623849   -4.513952   -4.645365
H     -5.615657    2.945084   -2.075289
H      7.551630    1.416376   -0.087811
H      6.016953   -0.330792   -2.837587
H      2.305484    0.234579   -2.641839
