27

C     -2.368055   -0.243682    1.761886
C      4.149668    0.721657   -0.299597
C      3.995726   -0.631255   -0.553467
C      3.032553    1.456897    0.004351
C      2.741106   -1.200940   -0.495971
C     -2.887341    0.224250   -0.579886
C     -3.123465   -1.179996   -0.979419
C     -1.933344    0.477468    0.507626
C      1.781643    0.872558    0.058252
C      1.608862   -0.473295   -0.191588
C      0.442985    1.388047    0.348235
C      0.171525   -0.816942   -0.062478
N     -0.542602    0.352306    0.273878
O     -3.753425   -1.387902   -2.041405
O      0.180501    2.570377    0.624592
O     -0.206488   -1.997973   -0.249886
H     -2.337131   -1.346158    1.643304
H     -3.424096    0.002860    2.031707
H     -1.760236    0.008202    2.655135
H      5.150611    1.170362   -0.346114
H      4.888249   -1.197745   -0.791903
H      3.136126    2.502209    0.202687
H      2.674113   -2.258620   -0.702224
H     -3.901412    0.572380   -0.197250
H     -2.755311    0.885806   -1.474831
H     -2.827279   -2.066698   -0.477746
H     -2.133483    1.595826    0.800049
