29

C      3.903815    0.376096    0.295646
C      2.905156    0.688378    1.215637
C      3.548872    0.145562   -1.015368
C      1.588249    0.767639    0.833900
C      2.232954    0.220294   -1.418213
C     -1.729823   -0.629954    1.399663
C     -0.753485   -1.264010    0.460948
C     -0.149764    0.609090   -0.930781
C     -2.086856   -0.719244   -1.375255
C      1.260403    0.534140   -0.475602
C     -2.645485    0.362290    0.766382
C     -2.901801    0.280226   -0.617593
N     -0.734798   -0.691436   -0.847718
O     -3.890979   -0.210243    0.270241
H      4.932601    0.318479    0.614510
H      3.146067    0.874709    2.248639
H      4.289822   -0.096181   -1.746188
H      0.841295    1.011988    1.572773
H      1.972435    0.035259   -2.456337
H     -2.358393   -1.410315    1.904855
H     -1.160619   -0.136757    2.225624
H     -1.052411   -2.346666    0.328510
H      0.283505   -1.318789    0.859394
H     -0.650790    1.361686   -0.280288
H     -0.214301    0.992615   -1.969127
H     -2.094570   -0.533455   -2.479671
H     -2.477915   -1.759681   -1.187534
H     -2.831098    1.333983    1.310277
H     -3.172085    1.204297   -1.191036
