32

C      3.764105   -0.992905   -0.718152
C     -4.528660    0.322501    0.152231
C     -2.268605   -1.010492    1.337692
C      3.469182    0.471185   -0.845727
C     -3.287354   -0.005719   -0.627213
C      3.395559    1.092038    0.515677
C      2.308252    0.455175    1.339529
C     -0.874841   -0.311598   -0.594453
C     -2.034373    0.024820    0.263115
C      0.977753    0.605977    0.700262
O      0.313450    1.665594    0.733447
O      0.362197   -0.431955    0.008074
H      4.663267   -1.124400   -0.075415
H      2.924934   -1.491327   -0.234001
H      3.929099   -1.458927   -1.716959
H     -5.387584   -0.120129   -0.415104
H     -4.469597   -0.230758    1.117487
H     -4.688908    1.390502    0.305988
H     -1.356444   -1.610860    1.463451
H     -2.646925   -0.564500    2.283880
H     -3.067006   -1.748975    1.037369
H      2.478305    0.596339   -1.326978
H      4.236074    1.008814   -1.447070
H     -3.435363   -1.024513   -1.071304
H     -3.151769    0.676639   -1.501111
H      3.159753    2.171139    0.384777
H      4.388185    0.981932    0.977075
H      2.484989   -0.608244    1.537567
H      2.232543    0.949637    2.337346
H     -1.128365   -1.237793   -1.169193
H     -0.779263    0.506113   -1.368188
H     -1.982588    1.054691    0.654756
