39

C      5.788179   -0.189695    0.158633
C      4.115690    0.357753    2.046683
C     -5.196377   -1.318320   -0.175382
C     -5.549754    0.810705    0.986242
C      0.110817   -1.353096   -0.793263
C      2.643046    0.313185   -1.445929
C      3.545054    0.231914   -0.351091
C      1.257887    0.809160   -1.335908
C     -1.069062    0.746975   -0.751682
C      4.332169    0.161075    0.605073
C     -4.501115   -0.222982    0.638473
C      0.304879    0.103119   -0.437392
C     -2.148424    0.173131    0.063726
O     -1.870137   -0.540495    1.076688
O     -3.488256    0.368495   -0.210763
H      6.304089   -0.744255    0.930277
H      5.742023   -0.790566   -0.768685
H      6.306560    0.776723   -0.022761
H      5.063702    0.343880    2.627399
H      3.495244   -0.464192    2.479575
H      3.557581    1.317817    2.182308
H     -4.732133   -2.308659    0.011919
H     -5.084103   -1.050516   -1.245568
H     -6.268881   -1.329828    0.055790
H     -6.604154    0.450086    0.813714
H     -5.483615    1.187456    2.040232
H     -5.463085    1.702564    0.281660
H      1.054786   -1.882729   -1.055817
H     -0.627570   -1.476415   -1.602606
H     -0.300830   -1.883892    0.081868
H      2.637161   -0.678652   -2.035352
H      3.140971    0.979834   -2.236809
H      2.528931    0.586279    0.557964
H      0.819744    0.938050   -2.355995
H      1.331333    1.878777   -0.934798
H     -1.215885    0.580726   -1.847232
H     -0.980657    1.864911   -0.607238
H     -4.034178   -0.710563    1.507488
H      0.538371    0.262238    0.610358
