27

C      3.732072   -0.226098   -0.832436
C     -4.428667    0.368768   -1.217952
C     -0.579385   -1.333209    1.236512
C     -0.261899    0.506886   -0.216051
C     -1.919243   -1.350099    0.891289
C     -1.613801    0.474837   -0.551839
C      0.249405   -0.406096    0.684030
C     -2.472969   -0.457276   -0.003318
C      1.693122   -0.313610    0.993606
C      2.257843    0.983319    0.542159
N      3.212277    1.013684   -0.313086
O      1.966706   -0.414643    2.346499
O      1.788396    2.203618    1.015637
O     -3.824461   -0.524228   -0.309841
H      4.154969   -0.886505   -0.040811
H      2.941645   -0.718169   -1.428237
H      4.573644   -0.045418   -1.538853
H     -4.031607    1.416091   -1.072810
H     -5.530702    0.435019   -1.056718
H     -4.227626    0.030074   -2.258662
H     -0.210601   -2.053210    1.937098
H      0.334498    1.268036   -0.692174
H     -2.593898   -2.090968    1.329471
H     -2.014132    1.183650   -1.251658
H      2.189513   -1.116032    0.416105
H      2.738384   -0.959378    2.571359
H      1.876517    3.010957    0.408078
