39

C     -4.572542   -0.452899   -1.618309
C     -4.983487    0.052557    0.855377
C      4.551815    1.188592   -1.521238
C      5.370718    1.090821    0.847511
C     -0.133095   -1.630723   -0.123270
C     -2.184060    0.358934    1.268280
C     -2.762564    0.033866   -0.022207
C     -1.268195   -0.607405    1.908083
C      0.808185    0.294859    1.042412
C     -4.050208   -0.122090   -0.281429
C      4.363275    0.564095   -0.141921
C     -0.029638   -0.981627    1.192029
C      2.147802   -0.094395    0.550855
O      2.517271   -1.266734    0.316970
O      3.080346    0.925002    0.327783
H     -4.605548   -1.542243   -1.823182
H     -3.945004   -0.017574   -2.439622
H     -5.596499   -0.065710   -1.799557
H     -4.857856    1.118602    1.207084
H     -6.033666   -0.064509    0.542676
H     -4.697252   -0.593195    1.703640
H      3.592670    1.059234   -2.063857
H      5.346614    0.643264   -2.089131
H      4.814022    2.260772   -1.399113
H      4.946924    1.087687    1.882695
H      6.247731    0.408647    0.844255
H      5.618703    2.128151    0.565863
H      0.100071   -0.964704   -0.977120
H      0.613821   -2.487679   -0.162013
H     -1.090259   -2.136796   -0.352235
H     -1.635067    1.329892    1.184640
H     -3.034490    0.616299    1.971004
H     -2.101133   -0.090484   -0.898480
H     -1.816238   -1.513176    2.323952
H     -0.925801   -0.108425    2.870461
H      0.872973    0.792790    2.046788
H      0.280820    0.938250    0.315298
H      4.474550   -0.532803   -0.281137
H      0.574293   -1.619142    1.902271
