33

C     -3.186051    0.626475   -1.197184
C     -4.136574   -1.265328    0.021670
C     -2.545760    0.572597    1.724488
C      2.076027    0.890811   -0.587319
C      3.001691   -1.045868    0.338326
C      3.347372    1.297711   -1.009849
C      4.280849   -0.660538   -0.073510
C     -2.842341   -0.635309   -0.443477
C     -1.931814   -0.364763    0.731436
C      1.898369   -0.287761    0.091260
C      4.444729    0.510757   -0.745930
C      0.567277   -0.680238    0.515139
N     -0.611273    0.064235    0.289133
N      5.725431    0.944103   -1.184521
O      0.371273   -1.774939    1.148540
O      6.817706    0.158456   -0.920544
O      5.893503    2.006707   -1.797527
H     -3.837614    1.308766   -0.630632
H     -3.766595    0.301370   -2.099708
H     -2.267541    1.116923   -1.586063
H     -4.282724   -2.258435   -0.448162
H     -5.005725   -0.619864   -0.199273
H     -4.060800   -1.445752    1.133216
H     -3.283392    0.003362    2.357276
H     -1.773635    0.942089    2.421020
H     -3.054021    1.435868    1.249354
H      1.280394    1.568216   -0.837692
H      2.929777   -1.983764    0.867561
H      3.479241    2.226500   -1.543317
H      5.154075   -1.279617    0.132546
H     -2.361462   -1.318851   -1.145401
H     -1.779709   -1.337452    1.243228
H     -0.540686    0.983533   -0.228032
