52

C      3.888139    0.978530    2.194550
C      5.914277    1.511169    0.982867
C     -2.729328   -3.282732   -1.823518
C      2.014219   -1.644205   -2.177154
C     -5.524068   -2.239658    0.531299
C     -2.181685    2.548442   -1.218159
C     -1.665720    1.274092   -1.129497
C     -2.388783    3.245261   -0.047372
C     -1.588263    1.447166    1.255843
C      3.947735    0.855819   -0.349381
C      4.621047    0.669563    0.952022
C     -1.638252   -2.390591   -1.355174
C      0.661441   -1.593423   -1.523602
C     -1.370650    0.727982    0.110328
C     -2.102348    2.721003    1.194353
C     -1.862306   -1.554334   -0.363165
C      0.476027   -0.754216   -0.545642
C     -0.814059   -0.658588    0.127983
C     -3.190810   -1.508809    0.275241
C      1.568211    0.138132   -0.076942
N     -0.366701   -2.452644   -1.985043
N     -2.337581    3.487634    2.362064
O     -3.399342   -0.704773    1.225827
O      1.346884    0.931278    0.867772
O     -2.039277    2.929619    3.576723
O     -2.804084    4.636914    2.262750
O     -4.254459   -2.295350   -0.091832
O      2.802142    0.134875   -0.627065
H      3.233894    0.179759    2.597053
H      3.418494    1.975912    2.198232
H      4.693965    1.075149    3.006601
H      6.597731    1.026719    1.716343
H      6.348678    1.528099   -0.038170
H      5.704958    2.529257    1.375899
H     -3.061796   -4.014817   -1.082602
H     -3.553138   -2.700932   -2.260570
H     -2.313783   -3.875102   -2.690298
H      1.949483   -2.436251   -2.980482
H      2.779442   -2.017603   -1.485989
H      2.259734   -0.717839   -2.712802
H     -6.334993   -1.974168   -0.148962
H     -5.726035   -3.281581    0.908408
H     -5.541664   -1.587716    1.421507
H     -2.421497    3.000856   -2.169763
H     -1.490690    0.696393   -2.045828
H     -2.799782    4.262963   -0.101154
H     -1.357432    1.020534    2.229512
H      4.661984    0.635109   -1.212174
H      3.781269    1.978679   -0.502673
H      5.024511   -0.395222    0.950660
H     -0.638380   -0.933481    1.207397
H     -0.197354   -3.132876   -2.786220
