36

C      5.360982    2.934996   -1.269920
C     -4.469514    1.181909   -0.640325
C     -2.211976   -2.294114    1.436692
C      4.405399    1.990236   -0.850534
C      3.580189    1.174570   -0.487917
C      2.642286    0.233690   -0.106989
C      2.119252    0.175566    1.145927
C      0.672977   -1.838412    0.545686
C     -0.558889   -1.414761   -0.198966
C     -3.337196    0.462939    0.033528
C      1.150957   -0.822220    1.481346
C     -2.875002   -0.736559   -0.263079
C     -2.526383    0.972186    1.144119
C     -1.739993   -1.117412    0.631726
O      0.689060   -0.822059    2.649565
O     -3.396767   -1.524944   -1.284424
O     -2.708942    2.114183    1.680098
O     -1.596436    0.018885    1.456051
H      5.535600    2.874121   -2.400275
H      5.153500    4.014405   -1.057169
H      6.402753    2.681232   -0.891524
H     -5.395687    0.564031   -0.555138
H     -4.671412    2.096755   -0.062269
H     -4.296528    1.330030   -1.716831
H     -1.414764   -2.899306    1.864886
H     -2.844174   -2.942994    0.776478
H     -2.871962   -1.931856    2.256964
H      4.339505    2.487639    0.474084
H      3.629914    0.679594   -1.812879
H      2.211691   -0.557330   -0.749438
H      2.503358    0.935877    1.816509
H      1.404662   -2.198579   -0.201825
H      0.396580   -2.802892    1.091778
H     -0.815392   -2.261444   -0.885532
H     -0.320554   -0.570334   -0.873829
H     -4.147093   -2.187631   -1.073550
