33

C     -4.157673    1.278049    0.425977
C     -2.863370    0.695920   -1.627353
C     -2.759890   -1.262119    0.716347
C      2.128573   -0.603331   -0.774745
C      2.890288    0.176631    1.313531
C      3.462761   -0.788235   -1.154039
C      4.203484   -0.007377    0.934968
C     -2.786452    1.083207   -0.182771
C     -2.047641    0.071989    0.665835
C      1.817367   -0.115393    0.471465
C      4.512800   -0.495842   -0.312754
C      0.454616    0.103373    0.936852
N     -0.700879   -0.162492    0.158346
N      5.856946   -0.694298   -0.726508
O      0.273310    0.558025    2.104795
O      6.116733   -1.183552   -1.980032
O      6.831752   -0.441487    0.006007
H     -4.113978    1.029508    1.512218
H     -4.923154    0.659982   -0.057551
H     -4.474621    2.342673    0.311440
H     -3.930718    0.501617   -1.873670
H     -2.242007   -0.179722   -1.890400
H     -2.559268    1.554959   -2.281190
H     -2.015471   -2.095775    0.661040
H     -3.517795   -1.357007   -0.098139
H     -3.318334   -1.403074    1.669202
H      1.326504   -0.843684   -1.461603
H      2.653143    0.556467    2.284051
H      3.678835   -1.174796   -2.143675
H      5.037546    0.221828    1.595233
H     -2.257160    2.041283   -0.100617
H     -2.025283    0.469319    1.700524
H     -0.550962   -0.536649   -0.802786
