29

C      2.473916    1.098933   -2.020874
C     -0.580768    1.216433    1.850433
C     -2.196848   -1.421287    0.536442
C      1.463922    0.808453   -0.948421
C      0.697096   -0.583079    0.872633
C     -0.506535    0.257360    0.956674
C      1.649395   -0.240736   -0.190447
C      2.800710   -1.128679   -0.350228
C     -2.747758    0.939774    0.138527
C     -1.669914   -0.047559    0.100790
O      3.690924   -0.956511   -1.216552
O      2.955371   -2.243226    0.489173
O     -3.033499    1.542812   -0.941025
O     -3.465475    1.249719    1.263037
O     -1.188775   -0.246982   -1.212750
H      2.455976    0.256009   -2.723003
H      2.182888    2.044590   -2.549724
H      3.438308    1.300482   -1.540342
H      0.275862    1.375456    2.532985
H     -1.407010    1.872353    1.978141
H     -1.569374   -2.195059    0.072530
H     -3.251630   -1.554035    0.258947
H     -2.103162   -1.515536    1.651832
H      0.629614    1.510210   -0.829101
H      1.173205   -0.573707    1.884150
H      0.333556   -1.636501    0.680642
H      3.616238   -2.983161    0.255322
H     -4.421644    1.557296    1.202711
H     -1.694588    0.296179   -1.860195
