28

C      2.174375   -0.523516   -0.904979
C      2.930018    0.767120   -1.214313
C      1.003820    0.372625    1.120566
C     -1.213873   -0.795820    1.301708
C     -0.807030    0.643457   -0.495001
C     -0.356484    0.051896    0.660813
C      2.072243   -0.523407    0.609702
C     -2.471890   -1.033826    0.794327
C     -2.070215    0.424234   -1.032935
C      3.416719    1.199913    0.121323
C     -2.924517   -0.424269   -0.388855
O     -3.337099   -1.899806    1.456231
O     -2.470668    1.046644   -2.199364
O      3.829030    2.377715    0.403681
O     -4.180130   -0.679027   -0.870522
O      3.323387    0.086861    0.942429
H      2.874328   -1.346469   -1.204410
H      1.209191   -0.584535   -1.404305
H      2.236337    1.522718   -1.667893
H      3.802280    0.603434   -1.852562
H      1.232956    1.416954    0.825322
H      1.004108    0.315819    2.225090
H     -0.861733   -1.262992    2.212049
H     -0.183965    1.335907   -1.069244
H      2.052498   -1.544232    1.023981
H     -4.262788   -2.085987    1.098777
H     -3.379216    0.879815   -2.573116
H     -4.641681   -0.341228   -1.668613
