26

C     -2.709637   -0.302888   -1.275468
C     -3.023161    1.835122    0.049543
C      3.815340    0.065372   -0.082987
C      2.985585    0.081874   -1.176254
C      3.320483   -0.270417    1.173110
C      1.639940   -0.242794   -1.009119
C      1.980857   -0.584640    1.289857
C      1.119752   -0.579624    0.222133
C     -0.334976   -0.923749    0.365704
C     -1.151201    0.283065    0.546340
N     -2.281623    0.595400   -0.222237
O     -0.741578   -1.768683   -0.627203
O     -0.800755    1.101390    1.470625
H     -1.926300   -0.381418   -2.055907
H     -2.995912   -1.264540   -0.816063
H     -3.637890    0.090327   -1.760550
H     -2.273587    2.647719    0.016503
H     -3.789538    1.957492   -0.746609
H     -3.505227    1.733937    1.044657
H      4.867691    0.314797   -0.188993
H      3.384737    0.344249   -2.142623
H      3.992922   -0.273839    2.004178
H      0.987897   -0.230641   -1.863841
H      1.587810   -0.849688    2.278494
H     -0.398180   -1.499288    1.333806
H     -0.113447   -1.878534   -1.360201
