28

C     -3.313113   -0.269522    1.613982
C      1.725293   -0.557028   -1.114954
C      2.786679   -0.880556   -0.300646
C      1.013655    0.964462    0.552857
C     -1.264913   -0.465845   -1.525226
C     -2.861341   -0.044508    0.228832
C      0.838155    0.379257   -0.665636
C      2.965954   -0.283954    0.942030
C      2.075973    0.645768    1.376577
C     -0.311078    0.732964   -1.541415
N     -1.795661   -0.611492   -0.204392
O     -3.585155    0.775494   -0.599763
O      4.057673   -0.661113    1.704267
O      2.178197    1.286849    2.595822
O      0.222650    0.893486   -2.834379
H     -2.848557   -1.199176    2.031262
H     -4.413533   -0.431460    1.609792
H     -3.026580    0.596750    2.225129
H      1.601420   -1.037073   -2.088666
H      3.510975   -1.612823   -0.612911
H      0.301574    1.705130    0.895023
H     -2.032706   -0.283347   -2.280211
H     -0.628452   -1.349395   -1.757529
H     -0.794166    1.648805   -1.171037
H     -3.244041    1.148562   -1.478659
H      4.254215   -0.280541    2.602556
H      2.921241    1.104361    3.240568
H     -0.334358    0.370928   -3.443271
