26

C      3.193268    0.231187    1.541725
C      2.684890    0.488901   -0.868518
C     -3.668126    0.599188    0.629448
C     -3.436394   -0.748480    0.791558
C     -2.712546    1.447214    0.137106
C     -2.207990   -1.263220    0.449496
C     -1.485287    0.892488   -0.197298
C     -1.216093   -0.437417   -0.051690
C      0.107506   -1.020733   -0.414884
C      1.094250   -0.716478    0.644783
N      2.291701   -0.012528    0.421032
O      0.516610   -0.524225   -1.647064
O      0.800388   -1.133758    1.802469
H      2.840137    1.108657    2.125950
H      4.239241    0.380869    1.164782
H      3.123797   -0.669621    2.186992
H      3.657029    1.042520   -0.824775
H      1.954530    1.261467   -1.230273
H      2.838449   -0.324149   -1.609045
H     -4.637291    0.993155    0.901515
H     -4.223530   -1.365634    1.182362
H     -2.855379    2.509031   -0.004698
H     -2.026962   -2.323418    0.577483
H     -0.731832    1.554209   -0.584092
H     -0.009766   -2.126178   -0.548143
H     -0.130599    0.156952   -1.942006
