34

C     -5.102726    0.510307   -0.980350
C     -3.603386   -1.153331    0.357143
C      2.579691    1.468282   -1.239503
C      0.602302    0.619039   -0.096783
C     -1.399842   -0.241345    1.053617
C      4.665863    0.491480   -0.714426
C     -4.242179    0.169627    0.206580
C      1.978846    0.609981   -0.332905
C     -2.129187   -1.172144    0.097132
C      3.941053    1.416856   -1.441704
C      0.059000   -0.258397    0.811638
C      4.075897   -0.366505    0.190398
C      2.703246   -0.323904    0.401745
C      2.110835   -1.185401    1.304463
O     -4.121887    1.071300    1.022362
O     -1.833486   -0.813030   -1.225309
O      4.589358    2.261913   -2.346492
O      4.788473   -1.303831    0.931333
O      2.793960   -2.020100    1.954615
O      0.820972   -1.105826    1.459718
H     -6.136252    0.751039   -0.602403
H     -4.691975    1.412324   -1.471610
H     -5.208247   -0.343079   -1.675234
H     -4.115383   -1.891675   -0.310809
H     -3.785575   -1.538683    1.395535
H      1.984159    2.175906   -1.788708
H      0.040962    1.339660   -0.664677
H     -1.830682    0.765098    1.023062
H     -1.632415   -0.660042    2.074742
H      5.745213    0.426060   -0.849366
H     -1.728694   -2.199428    0.237470
H     -2.660191   -0.638845   -1.758316
H      4.953981    3.159379   -2.093570
H      5.788294   -1.432687    0.867522
