23

C     -1.989037    0.552645   -1.712410
C     -0.702584    0.469641   -1.188017
C     -3.055216    0.161468   -0.939352
C     -1.561351   -0.374790    0.824482
C      1.936863    0.203132   -0.428186
C     -0.453383    0.006908    0.086288
C     -2.849466   -0.308526    0.343632
C      0.923831   -0.080752    0.645020
C      3.308245    0.119586    0.108029
O     -3.920812   -0.703723    1.125995
O      1.152611   -1.286222    1.295379
O      3.471732   -0.159127    1.314304
O      4.416886    0.342422   -0.692768
H     -2.126292    0.921793   -2.714360
H      0.133213    0.786955   -1.822891
H     -4.071568    0.220557   -1.336612
H     -1.375221   -0.741365    1.831287
H      1.792382    1.267332   -0.745194
H      1.776821   -0.410992   -1.320991
H      1.016357    0.712713    1.438727
H     -3.740837   -1.038979    2.049089
H      0.620547   -1.303891    2.129149
H      5.296280    0.643215   -0.290602
