16

C      1.783960   -0.108930   -0.920424
C     -2.474509    0.863875    0.246352
C      1.929063   -0.051559    1.517050
C      1.074315   -0.348285    0.369834
C     -1.282355    0.022922    0.014718
N      2.613642    0.169030    2.431814
N     -0.172694    0.350670    0.498362
O     -1.401055   -1.126399   -0.738616
H      2.768159    0.379204   -0.684860
H      1.970560   -1.049414   -1.479280
H      1.231830    0.575332   -1.591996
H     -3.407812    0.267880    0.330452
H     -2.591069    1.643347   -0.536860
H     -2.326173    1.413654    1.201297
H      0.832110   -1.445184    0.425631
H     -0.547972   -1.556141   -1.083474
