23

C     -2.491996   -0.055417    1.287678
C     -1.146137    0.240033    1.332436
C     -3.080520   -0.258949    0.047214
C     -1.026224    0.122532   -1.025909
C      1.870399   -0.624370    0.059515
C     -0.396003    0.332711    0.174812
C     -2.371097   -0.175952   -1.123954
C      1.068003    0.654545    0.230717
C      3.300379   -0.258755    0.121265
O     -2.933164   -0.374787   -2.381819
O      1.423625    1.607329   -0.711974
O      3.874166    0.309259   -0.835351
O      4.027299   -0.542432    1.246420
H     -3.068949   -0.125113    2.203987
H     -0.607626    0.413822    2.263645
H     -4.140645   -0.492372    0.000799
H     -0.420416    0.198972   -1.934445
H      1.625212   -1.132464   -0.900038
H      1.589037   -1.302693    0.872261
H      1.315405    1.057378    1.229928
H     -3.913532   -0.590202   -2.418105
H      0.646321    1.817866   -1.277454
H      4.856464   -0.036236    1.538371
