33

C     -1.025803   -1.152480   -1.339721
C     -5.448569    0.644096    0.150813
C      5.562268   -0.212094    0.190273
C     -4.512902    1.176088    1.011063
C     -5.019439   -0.258609   -0.792160
C      4.899405    0.399037   -0.847867
C      4.880196   -0.843922    1.225589
C     -3.186362    0.814636    0.929340
C     -3.696075   -0.635739   -0.892986
C      3.517984    0.381847   -0.857565
C      3.512123   -0.859776    1.214028
C     -1.328584   -0.434623   -0.051708
C     -2.781711   -0.089957   -0.022108
C      2.837256   -0.244874    0.169257
C      0.778141    0.817599    0.052332
N      1.428584   -0.269074    0.170413
O      1.374445    2.064005   -0.081719
O     -0.610309    0.757233    0.057431
H      0.051385   -1.287883   -1.481568
H     -1.387088   -0.551027   -2.211659
H     -1.506555   -2.156546   -1.315602
H     -6.510374    0.922579    0.203604
H      6.638438   -0.197262    0.195377
H     -4.841083    1.887919    1.757224
H     -5.730248   -0.693391   -1.481391
H      5.403350    0.901092   -1.671595
H      5.422943   -1.321117    2.036969
H     -2.476527    1.246988    1.615504
H     -3.358900   -1.352927   -1.643172
H      2.972017    0.856801   -1.665223
H      2.967295   -1.358031    2.030211
H     -1.133865   -1.135791    0.786617
H      2.308565    2.185202    0.308976
