43

C      2.254855    0.122265   -1.638448
C      3.291691   -1.639829    0.444020
C      4.153381    0.568762    0.568727
C     -1.736649    3.859419    0.116100
C     -3.657934   -2.798352    1.039220
C     -1.686347    3.337064   -1.157175
C     -1.411085    3.058031    1.185076
C     -3.904111   -1.466149    0.787680
C     -2.418188   -3.318886    0.798722
C     -1.307123    2.011912   -1.328345
C     -1.035198    1.735090    0.985349
C     -2.919766   -0.641596    0.294909
C     -1.436568   -2.471882    0.301919
C      0.683952   -0.591737    0.193568
C      1.893170    0.225990   -0.185532
C     -0.974737    1.183402   -0.272124
C     -1.655719   -1.143025    0.043159
C     -0.578054   -0.241721   -0.509947
N      2.977495   -0.252571    0.644321
O     -0.534631   -0.473445   -1.873288
H      3.350353   -0.058197   -1.787348
H      2.014199    1.053752   -2.217364
H      1.748573   -0.717209   -2.145671
H      4.282578   -1.827094    0.928847
H      2.585515   -2.327752    0.945187
H      3.387852   -1.924746   -0.601934
H      4.182328    1.202538    1.494398
H      5.040738   -0.112149    0.656341
H      4.249859    1.140098   -0.358143
H     -2.038819    4.909400    0.249104
H     -4.417004   -3.474043    1.429010
H     -1.946422    3.983041   -1.991525
H     -1.461077    3.498840    2.183313
H     -4.905871   -1.092534    0.992758
H     -2.181977   -4.366827    0.984903
H     -1.281134    1.648379   -2.342141
H     -0.787605    1.141917    1.852374
H     -3.089569    0.390247    0.093279
H     -0.482571   -2.944374    0.129457
H      0.951417   -1.640561   -0.058705
H      0.529885   -0.431232    1.279475
H      1.750649    1.298159    0.043557
H     -1.480334   -0.412396   -2.197081
