33

C     -4.375595    1.366040    0.549625
C     -2.714462   -0.425866   -1.042145
C     -3.639994    0.209216    1.140630
C      4.859168    1.472658   -0.345309
C      3.983937    1.346889   -1.405035
C      4.746880    0.618024    0.740837
C      2.983255    0.396949   -1.441714
C      3.743886   -0.333913    0.703788
C      1.844042   -1.489602   -0.309951
C     -1.701246   -1.260937    1.090969
C     -2.341799   -0.099371    0.385740
C      2.874089   -0.450963   -0.360931
C      0.607286   -0.944307    0.328816
O      0.526071    0.239702    0.740908
O     -0.528668   -1.716846    0.505016
H     -4.726779    2.071311    1.353126
H     -3.767342    1.949997   -0.160321
H     -5.306175    0.979600    0.076985
H     -1.942436   -0.084126   -1.767322
H     -2.958887   -1.491808   -1.194973
H     -3.640861    0.151441   -1.316863
H     -4.276591   -0.718023    1.151178
H     -3.429494    0.436474    2.207619
H      5.637967    2.243933   -0.363384
H      4.058045    2.014243   -2.272430
H      5.431912    0.715122    1.572204
H      2.314559    0.336732   -2.303644
H      3.664134   -0.996622    1.556422
H      1.631979   -1.882598   -1.335245
H      2.252969   -2.352684    0.255862
H     -2.446267   -2.108083    1.053093
H     -1.615525   -1.004527    2.164927
H     -1.748056    0.811944    0.386110
