34

C     -5.115050    1.688246   -0.067774
C     -3.399651   -1.638209   -0.782901
C     -4.861228    0.224947   -0.222850
C      6.354650   -0.604880   -0.367856
C      5.331765   -1.019760   -1.185724
C      6.060966    0.097531    0.781724
C      4.012531   -0.728395   -0.847859
C      4.770597    0.396496    1.135748
C      2.398486    0.301567    0.700438
C      1.353648   -0.055909   -0.023131
C     -2.420277    0.379499    0.272644
C     -3.481968   -0.112360   -0.679289
C      3.747598   -0.036240    0.287772
C      0.031114    0.330422    0.474384
O     -0.068478    0.970887    1.542005
O     -1.137255    0.016855   -0.189533
H     -5.455209    1.946717    0.953032
H     -4.237696    2.328828   -0.284446
H     -5.943134    2.029473   -0.749857
H     -3.240402   -2.096563    0.195067
H     -4.338979   -1.994848   -1.223423
H     -2.563739   -1.885844   -1.483210
H     -5.054199   -0.298292    0.735021
H     -5.573733   -0.184926   -0.979766
H      7.384241   -0.823365   -0.616525
H      5.510801   -1.575795   -2.101941
H      6.871599    0.426200    1.429672
H      3.232988   -1.075521   -1.523294
H      4.553776    0.949470    2.042455
H      2.236100    0.860516    1.623431
H      1.435013   -0.617212   -0.959467
H     -2.464759    1.488261    0.278093
H     -2.649645    0.008106    1.273835
H     -3.280466    0.304099   -1.667909
