37

C     -0.398532   -2.968921    0.536660
C     -4.071593    1.374329   -1.745881
C     -4.266003    2.152411   -0.626019
C      3.459439   -0.995633   -1.697268
C      2.509320   -1.021802   -0.705644
C      4.209447    0.134563   -1.915130
C     -3.194046    0.298852   -1.665533
C     -3.587307    1.847702    0.547781
C      3.017670    1.177959   -0.123445
C      2.235532    0.035760    0.122157
C      3.972740    1.226376   -1.108868
C     -2.532742    0.017827   -0.489288
C     -2.725136    0.799108    0.644487
C      1.226002    0.017396    1.170604
C     -1.633635   -1.146708   -0.562490
C     -1.005412    0.011690    2.223224
C     -0.006337   -0.639286    1.297354
N     -2.109912    0.591150    1.903344
N     -0.669629   -1.554811    0.434401
O      4.732736    2.367125   -1.331797
O     -1.709383   -1.853135   -1.585697
O     -0.700674   -0.014876    3.588879
O      1.127826   -1.196600    1.993856
H     -0.205636   -3.325382   -0.509504
H      0.537905   -3.103502    1.093571
H     -1.246602   -3.540812    0.949068
H     -4.610081    1.632331   -2.642091
H     -4.949689    2.983270   -0.704131
H      3.612267   -1.874610   -2.306446
H      1.964425   -1.922198   -0.582382
H      4.975149    0.171334   -2.706296
H     -3.035022   -0.309923   -2.519119
H     -3.765689    2.477575    1.398272
H      2.828031    2.044665    0.518359
H      1.428878    0.846540    1.935400
H      5.616505    2.496898   -0.843152
H     -1.030813    0.763335    4.155388
