27

C     -2.785410    1.218668    0.029087
C      2.940147    0.316687    1.325283
C     -1.268835   -0.305806    1.164416
C      0.001398   -1.087402    1.155581
C     -1.052485    0.163328   -1.313140
C     -1.913410   -0.020064   -0.123438
C      2.056841    0.116600    0.134782
C      0.879646   -0.456744    0.120538
C      2.363810    0.543668   -1.226549
C      0.299891   -0.482832   -1.244536
O      3.427061    1.136471   -1.585424
O      0.259823   -1.824829   -1.640014
O      1.286195    0.175862   -2.007980
H     -2.511270    2.004185   -0.717224
H     -3.849601    1.013888   -0.108083
H     -2.632950    1.690683    1.037708
H      2.990673    1.385677    1.597730
H      3.947161   -0.118729    1.109415
H      2.510487   -0.237268    2.181783
H     -1.062640    0.655801    1.711749
H     -1.977234   -0.859601    1.850658
H     -0.187714   -2.145482    0.895746
H      0.449791   -1.027872    2.162915
H     -0.884025    1.243646   -1.524584
H     -1.543361   -0.234325   -2.235116
H     -2.627597   -0.865950   -0.347561
H      0.883607   -1.998260   -2.403745
