29

C      4.729656   -0.102589   -0.472794
C      4.002602    0.340134    0.781920
C     -4.170103    1.152548    0.747067
C     -3.677876    1.299156   -0.534490
C     -3.513262    0.426065    1.722513
C     -2.467846    0.676482   -0.822228
C     -2.313091   -0.177568    1.396332
C     -1.800883   -0.047034    0.126799
C     -0.511321   -0.693880   -0.229331
C     -0.830558   -1.875333   -1.062304
C      1.465355    0.567017   -0.702059
N      0.254523    0.274217   -0.956395
O     -0.441823   -1.939661   -2.249138
O     -1.561598   -2.910606   -0.523295
S      2.268982    1.795938   -1.706529
S      2.288116   -0.264038    0.638579
H      5.124610   -1.125222   -0.342763
H      4.052132   -0.074767   -1.346503
H      5.578348    0.589832   -0.641074
H      3.972462    1.456989    0.823835
H      4.485724   -0.071094    1.682424
H     -5.108268    1.626878    0.994485
H     -4.218318    1.878122   -1.283613
H     -3.903103    0.315303    2.721044
H     -2.094618    0.797781   -1.822466
H     -1.734612   -0.763106    2.096840
H      0.023469   -1.017373    0.693462
H     -2.039824   -3.611510   -1.074880
H      2.141125    1.477317   -3.061371
