31

C      4.900025    0.651461   -0.410604
C      3.423367    0.743688   -0.020003
C      3.118441   -0.472237    0.797915
C      1.674664   -0.463174    1.234334
C      0.741000   -0.451927    0.068532
C     -3.607212    0.303923   -1.100159
C     -2.739090    0.740606    1.127600
C     -3.636572   -0.191678    0.353078
C     -0.648194   -0.446834    0.607560
O     -4.456229   -0.478596   -1.891252
O     -4.919663   -0.105135    0.849252
O     -1.101965   -1.530432    1.051021
O     -1.434870    0.666316    0.639209
H      4.986771    1.083138   -1.425455
H      5.488315    1.250518    0.307003
H      5.236629   -0.418858   -0.433327
H      2.817346    0.741880   -0.944378
H      3.286292    1.675203    0.531433
H      3.731394   -0.503062    1.725923
H      3.359551   -1.386866    0.232512
H      1.469653    0.376884    1.917867
H      1.513126   -1.409925    1.808637
H      0.850717    0.489416   -0.519743
H      0.896428   -1.289003   -0.614680
H     -2.599640    0.205680   -1.529449
H     -3.894924    1.357026   -1.105635
H     -3.112946    1.780505    0.935172
H     -2.813488    0.587810    2.222969
H     -3.309111   -1.234955    0.355454
H     -3.945078   -1.280877   -2.141968
H     -5.274739   -0.990493    1.028084
