29

C      4.178407    0.510204    0.386985
C      3.639052    0.865227   -0.982096
C     -3.766398   -0.771654   -0.959147
C     -3.472583   -1.441059    0.197859
C     -2.870694    0.162344   -1.440740
C     -2.301602   -1.194988    0.882066
C     -1.694664    0.410607   -0.755123
C     -1.399994   -0.257487    0.400785
C     -0.148869   -0.013036    1.156712
C     -0.268724    1.257894    1.904232
C      1.174670   -0.693834   -0.722243
N      0.967747    0.037733    0.286795
O      0.566714    2.201210    1.716295
O     -1.285520    1.458033    2.823832
S      0.031319   -1.967340   -1.229178
S      2.657407   -0.459180   -1.685820
H      4.822695   -0.379701    0.356193
H      3.343469    0.344474    1.103168
H      4.750309    1.380625    0.753254
H      3.066523    1.813531   -0.894562
H      4.496872    1.073336   -1.652730
H     -4.685908   -0.966101   -1.494868
H     -4.151820   -2.184400    0.610433
H     -3.067892    0.712128   -2.352666
H     -2.051235   -1.718139    1.804319
H     -0.989237    1.152254   -1.142729
H      0.036021   -0.850131    1.876969
H     -1.457830    2.388250    3.213697
H     -0.118237   -2.870803   -0.175063
