42

C      4.932656   -0.476644   -0.346334
C      1.484559   -1.553166    1.297103
C      4.310254    0.471131   -1.329005
C      1.062925   -0.213681    1.890375
C      3.794855    1.741694   -0.743791
C      2.708220    1.516264    0.295520
C     -5.031173   -2.082975   -1.230516
C     -3.719111   -2.506930   -1.173240
C      1.522240    0.796991   -0.290888
C     -5.320038   -0.832645   -0.789573
C     -2.757633   -1.663232   -0.678768
C      0.482593    0.608852    0.761910
C     -4.349902    0.035001   -0.284216
C     -3.046947   -0.361488   -0.217770
C     -4.802069    1.334557    0.149713
C     -1.942281    0.427336    0.278420
O     -4.085613    2.214392    0.620153
O     -6.165349    1.651085    0.038804
O     -1.978872    1.574150    0.720285
O     -0.641629   -0.125203    0.283836
H      6.036280   -0.354962   -0.276942
H      4.751810   -1.518411   -0.712341
H      4.557459   -0.405549    0.679366
H      2.577455   -1.648973    1.202394
H      1.035079   -1.732613    0.305307
H      1.129535   -2.411640    1.938222
H      5.113777    0.748792   -2.048991
H      3.497007   -0.068780   -1.875712
H      0.175933   -0.467205    2.549530
H      1.842339    0.285203    2.462323
H      3.458747    2.463599   -1.507324
H      4.643971    2.212072   -0.174819
H      3.185384    0.988762    1.138915
H      2.351787    2.524830    0.653956
H     -5.820141   -2.726553   -1.617185
H     -3.508793   -3.507318   -1.529569
H      1.800712   -0.166096   -0.751939
H      1.086296    1.504116   -1.054025
H     -6.349476   -0.487453   -0.829574
H     -1.742462   -2.041759   -0.654245
H      0.177397    1.623305    1.106352
H     -6.457780    2.631143    0.133457
