22

C      3.453028   -0.078606   -0.682236
C      2.622248    1.084714   -0.142427
C     -2.532065    0.168230   -1.046856
C     -0.799876   -0.397968    0.676354
C     -1.912410   -0.922331   -0.173031
C      1.441785    0.557813    0.621454
O     -2.990869    1.222634   -0.258582
O     -2.938291   -1.380185    0.691217
O      1.495084    0.551258    1.858296
O      0.313139    0.087022   -0.044007
H      4.349582   -0.250954   -0.057092
H      3.810922    0.215531   -1.691245
H      2.843731   -0.999783   -0.666947
H      2.297076    1.767713   -0.929862
H      3.282201    1.623396    0.579672
H     -1.803160    0.555964   -1.779377
H     -3.415631   -0.293000   -1.575651
H     -0.484147   -1.196501    1.389311
H     -1.159930    0.438649    1.343310
H     -1.546793   -1.757533   -0.789626
H     -3.804436    0.947380    0.263617
H     -2.521186   -1.943441    1.391567
