29

C     -1.166759   -1.934860    1.257779
C     -3.466590    0.993928   -2.214267
C     -3.387611    1.492603   -0.933798
C     -2.635829   -0.052677   -2.551187
C     -2.499132    0.957863   -0.011452
C     -1.765688   -0.565377   -1.623739
C      3.158092    1.152012    1.671711
C      4.060555   -0.115784   -0.079308
C      1.900985    0.647848    1.423797
C      2.813680   -0.628437   -0.340105
C     -0.746021   -0.623730    0.653287
C     -1.664688   -0.088251   -0.338615
C      4.256575    0.786196    0.933910
C      1.706409   -0.253046    0.411469
Cl     5.854829    1.455894    1.283123
O      0.510999   -0.817420    0.075182
H     -0.789033   -2.809234    0.655492
H     -2.233183   -2.041622    1.425803
H     -0.654800   -2.022430    2.239498
H     -4.165792    1.410390   -2.949707
H     -4.038823    2.309935   -0.676442
H     -2.696907   -0.451473   -3.570296
H     -2.494960    1.402698    0.974450
H     -1.125401   -1.381478   -1.904180
H      3.292026    1.869237    2.483462
H      4.906920   -0.419374   -0.673522
H      1.051127    0.956569    2.025009
H      2.698782   -1.337248   -1.147179
H     -0.679763    0.107267    1.499827
