22

C      3.509072    0.257923   -0.202003
C      2.404607   -0.798544   -0.254999
C     -2.084999    0.330959   -0.838142
C     -1.082234   -0.657940    1.204481
C     -1.702803    0.579010    0.608648
C      1.204606   -0.265812    0.475383
O     -2.963612   -0.747558   -0.891450
O     -2.859920    0.869242    1.358659
O      1.243273    0.881614    0.997822
O      0.081582   -1.067183    0.549481
H      3.700708    0.425338    0.885194
H      3.140337    1.179834   -0.698739
H      4.429029   -0.149703   -0.655545
H      2.763574   -1.674748    0.296474
H      2.166233   -1.017035   -1.306361
H     -1.176197    0.136025   -1.418345
H     -2.589793    1.247035   -1.208911
H     -1.809528   -1.501454    1.128751
H     -0.870719   -0.411581    2.276411
H     -0.974807    1.407644    0.685418
H     -3.392068   -0.843665    0.003419
H     -3.136342    1.820597    1.173798
