29

C     -0.472763    0.264900    2.575741
C     -4.091560    0.610774   -0.763619
C     -3.239979    1.650494   -0.456614
C     -3.702744   -0.687107   -0.445670
C     -2.031007    1.366445    0.155761
C     -2.498148   -0.953718    0.162842
C      3.877910    0.575124   -1.249327
C      3.257079   -1.687076   -0.704824
C      2.716939    0.998407   -0.652645
C      2.079909   -1.222843   -0.102995
C     -0.341494   -0.165302    1.125680
C     -1.658046    0.085920    0.464313
C      4.131488   -0.780733   -1.265208
C      1.800620    0.108601   -0.070838
Cl     5.604887   -1.350192   -2.019537
O      0.649866    0.567067    0.517067
H     -0.666202   -0.608791    3.236794
H     -1.219850    1.076277    2.705892
H      0.511607    0.667958    2.886247
H     -5.038695    0.756822   -1.235697
H     -3.505844    2.673189   -0.687590
H     -4.371432   -1.500068   -0.687088
H     -1.400208    2.218499    0.374961
H     -2.233705   -1.968233    0.392300
H      4.599148    1.238029   -1.703880
H      3.489925   -2.732698   -0.737473
H      2.464319    2.038673   -0.608705
H      1.456561   -2.001750    0.308512
H     -0.168581   -1.238668    1.128473
