38

C      2.654035    0.862498   -0.730507
C      2.117087    0.641748    1.674830
C     -2.577503   -0.614859   -1.326085
C     -2.588177   -1.116272    1.099888
C     -1.277209    1.888872   -0.807748
C      0.080281    1.276391   -1.123121
C     -0.008723   -2.082877   -0.447330
C     -0.406489    0.990168    1.141728
C      2.293282   -1.328305    0.251473
C     -1.733398    1.045828    0.360534
C      1.437017   -2.229465   -0.547451
C     -0.472372   -0.880350   -0.181958
C      1.797699    0.093718    0.277610
C     -1.868944   -0.409304   -0.017705
C      0.383423    0.307929    0.011107
O      1.950795   -3.088708   -1.283803
H      2.266584    0.783714   -1.758388
H      2.749262    1.917463   -0.432442
H      3.687936    0.430339   -0.765792
H      1.502405    0.051649    2.388374
H      1.895151    1.725091    1.739849
H      3.177842    0.409890    1.903309
H     -1.866772   -0.884725   -2.146338
H     -3.231636   -1.516104   -1.201921
H     -3.225083    0.211578   -1.616831
H     -3.521145   -0.543269    1.307597
H     -1.986311   -1.223419    2.006527
H     -2.841663   -2.139999    0.714935
H     -1.131185    2.914193   -0.426289
H     -1.964572    1.837106   -1.665021
H     -0.006712    0.772865   -2.098728
H      0.847986    2.100205   -1.132264
H     -0.667692   -2.939508   -0.588893
H     -0.084910    2.018294    1.304914
H     -0.481938    0.363919    2.027686
H      2.319393   -1.725486    1.306409
H      3.328204   -1.374897   -0.154346
H     -2.545950    1.454090    0.936190
