34

C     -4.342202   -0.041646   -1.347934
C     -4.023289    0.818985    0.942618
C     -2.088760    0.274980   -0.447344
C      1.415168   -1.385713    0.842451
C      3.620476    0.225234   -0.245044
C     -3.502014   -0.136988   -0.096861
C     -1.202641    0.194040    0.788086
C      2.814015   -1.834100    0.660361
C      4.964285    0.674302   -0.754449
C      0.147790    0.598418    0.406944
Br    -1.359026   -1.543768    1.534596
N      3.719204   -1.122489    0.196587
N      1.192248   -0.063679    0.439426
O      3.108019   -3.154519    1.045534
O      5.905037   -0.133454   -0.721676
O      5.100563    1.958970   -1.236102
O      0.261744    1.947341   -0.067247
H     -4.797745    0.966619   -1.465088
H     -3.770193   -0.270657   -2.270374
H     -5.182287   -0.753586   -1.229555
H     -3.625428    1.818770    0.702935
H     -3.678022    0.575585    1.965957
H     -5.116663    0.849992    0.890449
H     -1.666991   -0.341649   -1.265483
H     -2.096750    1.329367   -0.807996
H      1.162155   -1.492168    1.927052
H      0.770314   -2.088934    0.237148
H      3.285220    0.929874    0.557340
H      2.899079    0.318490   -1.086008
H     -3.474110   -1.171242    0.297747
H     -1.588263    0.937122    1.536536
H      4.036022   -3.410176    1.358221
H      6.034698    2.363071   -1.228710
H      1.078347    2.163608   -0.614375
