31

C     -3.398561    1.739976    0.050965
C     -3.200186   -0.795173   -1.572500
C     -3.396691    0.367730    0.642198
C      1.408787    0.596743   -0.220058
C      2.085470   -1.386542    0.943080
C      3.672654    0.237687    0.322983
C     -2.641124   -0.636549   -0.191004
C      1.093011   -0.603383    0.371175
C      2.718555    1.036065   -0.251082
C      3.385384   -0.960473    0.917597
C     -0.290126   -1.064470    0.402397
N      3.037392    2.284773   -0.867772
N      4.425508   -1.735426    1.492475
O     -0.591201   -2.153545    0.936703
O      4.355480    2.672603   -0.870008
O      2.132451    2.970583   -1.374166
O      4.126635   -2.923082    2.079668
O      5.614955   -1.364718    1.479366
O     -1.280663   -0.313633   -0.152024
H     -4.404743    1.958044   -0.364968
H     -2.616030    1.873653   -0.740388
H     -3.131284    2.488479    0.840980
H     -4.290762   -0.973867   -1.467368
H     -3.087524    0.100740   -2.210227
H     -2.764480   -1.694801   -2.020412
H     -4.444076   -0.001170    0.776674
H     -2.926575    0.364241    1.651192
H      0.665506    1.247271   -0.682507
H      1.798757   -2.308397    1.390392
H      4.697872    0.595866    0.291074
H     -2.754389   -1.619223    0.315644
