17

C      1.780561   -0.266931    0.695332
C     -0.941294   -1.268200    0.483593
C      1.050480   -0.282396   -0.601647
C     -1.498637    2.060957   -0.406148
C     -0.445595   -0.132415   -0.369057
O     -1.954673    1.796107   -1.549035
O     -0.723314    1.112160    0.239106
H      2.717296   -0.855759    0.590369
H      2.091969    0.770739    0.922207
H      1.188687   -0.614074    1.561752
H     -1.792971   -1.766252   -0.021948
H     -0.113090   -1.945898    0.710745
H     -1.320030   -0.847550    1.449039
H      1.283532   -1.221143   -1.140917
H      1.352167    0.614134   -1.201251
H     -1.729083    3.006975    0.018025
H     -0.946005   -0.160454   -1.380166
