34

C     -3.016958    2.268299   -0.063910
C     -2.072437   -1.944702    1.403211
C      4.768519    1.498045   -0.115378
C     -0.817814   -1.331143   -1.264205
C     -2.643643    0.763605   -0.051130
C     -0.671715   -1.429885    1.222523
C      3.305812    1.169063   -0.291231
C     -1.168782    0.731548   -0.000547
C      1.928962   -0.863531   -0.452989
C     -0.468789   -0.573718    0.000708
N      0.954632   -0.247820   -0.012883
O      1.805246   -2.095707   -1.069565
O      3.195652   -0.253361   -0.301401
H     -4.060150    2.410771    0.261769
H     -2.781462    2.713464   -1.043254
H     -2.348861    2.734184    0.690693
H     -2.562064   -1.418924    2.244202
H     -2.707215   -1.861416    0.500976
H     -2.043540   -3.033238    1.732016
H      4.910161    2.549357    0.231785
H      5.252446    0.843407    0.636993
H      5.284117    1.362291   -1.088592
H     -1.786373   -0.976018   -1.684807
H     -0.958161   -2.410736   -1.084613
H     -0.063787   -1.194516   -2.060354
H     -3.150007    0.416649    0.899197
H     -3.110513    0.348363   -0.946859
H     -0.402062   -0.879011    2.154096
H      0.005654   -2.307682    1.216996
H      2.970204    1.626340   -1.231171
H      2.778327    1.568768    0.602502
H     -0.860924    1.368492    0.883141
H     -0.786333    1.324272   -0.885362
H      1.321859   -2.875508   -0.652912
