34

C     -4.158096    1.711894    0.313288
C     -3.044195    1.199924   -1.861091
C     -2.168237    0.182241    0.209770
C      1.431011   -1.621195    1.506488
C      3.674396    0.029777   -1.010157
C     -3.427715    0.655808   -0.486647
C     -1.528135   -0.853715   -0.661367
C      2.628639   -1.217612    0.758347
C      4.305811    1.258973   -0.430249
C     -0.276911   -1.403994   -0.092447
Br    -2.758713   -2.309033   -0.928509
N      2.569159   -0.417304   -0.226735
N      0.220029   -1.040161    1.030501
O      3.856829   -1.729696    1.144956
O      5.294133    1.755069   -1.029348
O      3.832091    1.843054    0.724196
O      0.388144   -2.369914   -0.827284
H     -4.928546    2.144027   -0.389024
H     -3.512058    2.543847    0.618775
H     -4.732919    1.256079    1.133354
H     -2.940047    0.350563   -2.542055
H     -2.110688    1.775326   -1.829593
H     -3.917082    1.818110   -2.200344
H     -2.475808   -0.259712    1.187156
H     -1.529423    1.054760    0.413245
H      1.575226   -1.282670    2.571628
H      1.401853   -2.728893    1.559699
H      4.471185   -0.731868   -1.132128
H      3.309746    0.306429   -2.023323
H     -4.134267   -0.185456   -0.647673
H     -1.272013   -0.394638   -1.634253
H      4.738644   -1.253012    0.948382
H      4.011933    2.791824    0.970374
H      1.206022   -2.878833   -0.472427
