33

C     -3.996145   -1.055416   -0.112832
C     -3.311826    1.306630   -0.055203
C      4.195028    0.508040    0.358709
C      5.222384    0.210610   -0.516829
C      1.858176    0.533771    0.834337
C      1.339721   -0.568105   -1.638271
C      2.896754    0.236633   -0.041973
C      0.571396    0.264683    0.436679
C      2.653058   -0.314513   -1.281834
C      0.281624   -0.283629   -0.787524
C      4.893588   -0.333251   -1.724584
C     -0.720628    0.480824    1.150775
C     -1.634696   -0.472779    0.441824
C     -3.049441   -0.035392    0.544225
O      5.832784   -0.607245   -2.529856
O     -1.096336    1.796070    0.959572
O     -3.405509   -0.085234    1.903551
O      3.659050   -0.587708   -2.097145
O     -1.112425   -0.436574   -0.892857
H     -4.992514   -0.573709   -0.108830
H     -4.024181   -1.950817    0.522991
H     -3.693441   -1.269255   -1.142458
H     -2.552874    1.560367   -0.801851
H     -3.365416    2.087194    0.748164
H     -4.298424    1.288249   -0.593740
H      4.355374    0.938449    1.332287
H      6.244017    0.415698   -0.221305
H      2.045836    0.961120    1.795780
H      1.131868   -0.997927   -2.601873
H     -0.617714    0.234322    2.236616
H     -1.477912   -1.507984    0.839631
H     -0.295711    2.401767    0.920160
H     -3.535465   -1.041353    2.123663
