34

C     -2.862645    2.047648   -0.231072
C     -1.460652   -1.908786   -1.572085
C      2.435594    2.466818    1.025868
C      0.956131   -2.282559    0.367228
C      2.342595   -2.287674    0.254777
C      1.041359    0.076099    0.746294
C     -1.154775   -1.027408    0.741797
C     -3.258606   -0.745801   -0.428339
C     -1.709105    1.602970   -1.054775
C      0.317884   -1.077504    0.615773
C      3.068759   -1.113714    0.388399
C      2.407572    0.048421    0.631777
C     -1.820835   -0.780545   -0.598782
N     -4.423845   -0.736374   -0.295284
N     -1.309649    0.418385   -1.180273
O     -0.981244    2.592058   -1.771325
O      4.448685   -1.106699    0.278474
O      3.101603    1.239437    0.770745
H     -3.788977    1.919902   -0.808734
H     -2.716786    3.108292    0.078265
H     -2.902337    1.406995    0.667012
H     -0.419729   -1.827538   -1.918790
H     -1.639886   -2.903856   -1.077888
H     -2.120040   -1.884308   -2.449467
H      3.128311    3.311944    0.982191
H      1.930423    2.458394    1.999183
H      1.706094    2.608426    0.195481
H      0.361827   -3.171962    0.269562
H      2.840800   -3.226135    0.061135
H      0.535542    1.023915    0.942112
H     -1.517816   -0.331805    1.513790
H     -1.483435   -2.044758    1.069418
H     -0.013933    2.390340   -2.014967
H      4.961115   -0.262618    0.375371
