29

C     -1.579053   -0.047057   -1.520890
C     -0.501564   -1.756488   -0.250952
C      1.339327    0.465827   -1.324969
C      1.219001    0.390290    1.101764
C      1.897919   -0.905730    1.176060
C     -1.756200   -0.061487    0.870235
C      0.021464    2.052830   -0.133490
C     -0.778326   -0.295099   -0.256264
C      0.392428    0.608392   -0.152758
O      2.497735   -1.383197    0.155792
O      1.934328   -1.682401    2.318521
O     -1.615790    0.781399    1.763513
O     -2.890045   -0.884789    0.862396
O     -1.144160    2.424613   -0.200299
O      1.023347    3.011639   -0.038422
H     -1.064379   -0.530761   -2.398606
H     -2.527692   -0.663072   -1.420367
H     -1.898774    0.960917   -1.700807
H     -1.450280   -2.257644   -0.619339
H     -0.292054   -2.213090    0.703531
H      0.239223   -2.048745   -1.014718
H      2.339659    0.900621   -1.111942
H      0.916520    1.136755   -2.138309
H      1.414145   -0.573596   -1.705237
H      0.679836    0.659787    2.019548
H      2.061129    1.154282    1.070551
H      2.420635   -2.566686    2.366889
H     -3.726571   -0.669925    1.383583
H      0.828193    3.992412    0.194985
