34

C     -3.986180    1.128786    0.188124
C     -0.610102   -1.403116   -1.690183
C      3.680256   -2.000345    0.463692
C      0.299232    1.606112    0.714480
C      0.772411    1.496466    2.000521
C      1.713919   -0.103138   -0.015088
C      0.201747    0.960438   -1.687064
C     -1.426278    0.113563   -3.317478
C     -2.834295    0.231992   -0.198775
C      0.741478    0.824944   -0.328563
C      1.758825    0.550459    2.309417
C      2.203913   -0.230308    1.273697
C     -1.010806    0.047823   -1.896488
N     -1.757758    0.183371   -4.445480
N     -2.087869    0.410324   -1.115744
O     -2.717632   -0.884310    0.658822
O      2.275704    0.391463    3.581767
O      3.203186   -1.192052    1.563724
H     -3.975788    1.345595    1.272407
H     -3.947096    2.091429   -0.340986
H     -4.915683    0.610493   -0.111436
H      0.091094   -1.700957   -2.528403
H     -0.179940   -1.619606   -0.715494
H     -1.519915   -2.013551   -1.840020
H      4.374773   -2.730032    0.962945
H      4.308364   -1.343078   -0.150016
H      2.852478   -2.481909   -0.075997
H     -0.470659    2.346015    0.466734
H      0.424049    2.106540    2.815965
H      2.090098   -0.737514   -0.800102
H      0.920373    0.706336   -2.494852
H     -0.148662    1.993534   -1.896835
H     -2.229083   -1.709953    0.413914
H      1.905846    1.004187    4.322067
