40

C     -0.715167   -2.268008   -1.633387
C     -4.054696    2.175564   -0.497091
C     -2.951589    1.906284   -1.255750
C      4.324822    2.607841    0.953804
C      2.977566    2.817820    0.734014
C     -3.461662   -1.772679    2.093764
C     -4.486140    1.396538    0.561822
C     -4.155353   -0.614410    1.859487
C     -2.226700    0.756821   -0.916585
C      4.786765    1.323271    0.794166
C      2.156109    1.784481    0.378459
C     -2.342406   -2.032137    1.316856
C     -0.619842   -1.396429   -0.395642
C     -3.743203    0.258006    0.874842
C     -1.867669   -1.213614    0.323615
C     -2.618353   -0.035361    0.121531
C      3.932971    0.255763    0.425732
C      2.600493    0.478723    0.217731
C      4.561160   -1.010773    0.114414
C      1.637879   -0.586409    0.082822
O      4.071200   -1.991277   -0.483519
O      5.901037   -1.209572    0.518935
O      1.904057   -1.787432    0.324077
O      0.290950   -0.388662   -0.341843
H     -0.280487   -3.269557   -1.537464
H     -1.821563   -2.423554   -1.824337
H     -0.236797   -1.795435   -2.507722
H     -4.626712    3.060976   -0.770835
H     -2.615666    2.517273   -2.109401
H      5.008028    3.407278    1.240276
H      2.613804    3.844528    0.881254
H     -3.756934   -2.475309    2.839614
H     -5.346598    1.619964    1.124650
H     -5.033126   -0.392504    2.439571
H     -1.357971    0.501862   -1.521709
H      5.848370    1.112496    0.968401
H      1.082418    1.916408    0.222472
H     -1.815154   -2.951169    1.530593
H     -0.074225   -2.240137    0.307221
H      6.510385   -1.887467    0.013202
