46

C     -4.660509   -1.660768    1.373048
C     -0.542436    1.934213   -1.894945
C     -1.880053    2.266987    0.099598
C     -2.885254    1.274997   -1.939013
C     -3.388721   -1.449791    2.185924
C     -2.490346   -0.439179    1.469625
C     -2.103955   -0.899202    0.117472
C      3.565467   -1.034710   -1.142588
C      2.784443    0.090651    0.822821
C      5.109916   -0.413034    0.558948
C      2.555494   -0.493479   -0.395044
C      4.858740   -0.995185   -0.661949
C      4.082717    0.124122    1.293127
C     -1.217183   -0.046392   -0.693388
C      1.199528   -0.534284   -0.897802
C     -1.677241    1.327579   -1.036049
N      5.937754   -1.555691   -1.425807
N      4.359910    0.724893    2.558742
O      0.949081   -1.065031   -2.017670
O      5.647298   -2.128633   -2.640864
O      7.079304   -1.508104   -0.976606
O      5.649184    0.760020    3.029666
O      3.455164    1.223248    3.254799
O      0.118000   -0.009039   -0.203889
H     -4.491321   -2.544564    0.722025
H     -4.797864   -0.739643    0.753053
H     -5.512284   -1.845193    2.056336
H     -0.703497    3.043965   -1.948373
H      0.409178    1.761807   -1.373829
H     -0.566392    1.513977   -2.910687
H     -1.406776    3.259707   -0.177905
H     -2.949532    2.531886    0.241871
H     -1.347263    1.964308    1.008313
H     -3.805114    1.082851   -1.365376
H     -2.979765    2.199974   -2.531068
H     -2.765098    0.428836   -2.651230
H     -2.880162   -2.397290    2.379529
H     -3.719761   -1.043328    3.163421
H     -3.149459    0.471839    1.349838
H     -1.683066   -0.176279    2.138162
H     -1.559490   -1.882886    0.263477
H     -2.983346   -1.187410   -0.499161
H      3.380810   -1.494048   -2.101699
H      1.990852    0.521880    1.421946
H      6.141532   -0.392275    0.921184
H     -1.128484   -0.572308   -1.697979
