29

C      3.605165    0.275020    0.871755
C      1.241183   -0.975246   -1.583578
C      2.879027    1.108582   -0.143065
C      1.384993    0.996612   -0.040958
C     -1.306559    0.382699   -1.038171
C     -1.267356   -0.990103    0.925378
C     -2.678621    0.448659   -0.923973
C     -2.642075   -0.926149    1.042854
C      0.883412   -0.406717   -0.238989
C     -0.615357   -0.346186   -0.097665
C     -3.344608   -0.191374    0.095620
N     -4.767398   -0.076433    0.147256
H      3.019908    0.271526    1.811594
H      4.572721    0.771947    1.093331
H      3.809927   -0.755847    0.521193
H      2.231022   -1.509378   -1.557805
H      1.338231   -0.210095   -2.367350
H      0.491357   -1.764739   -1.823017
H      3.262291    0.867984   -1.155718
H      3.143305    2.169387    0.045911
H      0.937281    1.724456   -0.739113
H      1.105531    1.297328    0.993968
H     -0.788914    0.899942   -1.859001
H     -0.705242   -1.570759    1.672912
H     -3.213696    1.035894   -1.685041
H     -3.201360   -1.414580    1.828732
H      1.248942   -1.027736    0.597215
H     -5.245959    0.816086    0.378525
H     -5.377149   -0.900781   -0.049465
