29

C      3.676854    0.726477    0.248948
C      1.131885   -1.459394   -1.052544
C      2.939727   -0.329295    1.000092
C      1.447273   -0.132242    1.008076
C     -1.231761    1.103853   -0.865138
C     -1.406019   -0.772921    0.534433
C     -2.593713    1.318027   -0.756515
C     -2.781773   -0.583327    0.663627
C      0.847600   -0.130784   -0.370412
C     -0.617752    0.052318   -0.219170
C     -3.371743    0.464036    0.016024
N     -4.766707    0.664821    0.140848
H      3.156952    1.712948    0.261352
H      4.665707    0.874819    0.730264
H      3.914006    0.413199   -0.806518
H      0.776579   -2.322636   -0.459829
H      0.688683   -1.461722   -2.055622
H      2.242201   -1.551358   -1.125270
H      3.265874   -0.272006    2.074282
H      3.247450   -1.314305    0.642139
H      1.189578    0.790998    1.548521
H      0.999651   -0.978474    1.569274
H     -0.664013    1.786559   -1.472207
H     -0.966688   -1.604235    1.054035
H     -3.056192    2.147035   -1.269955
H     -3.365330   -1.273482    1.279192
H      1.256974    0.650876   -1.018394
H     -5.469272   -0.099156   -0.044863
H     -5.156029    1.579371    0.422371
