32

C     -4.612234    1.993223   -1.758892
C      1.616675   -2.362500   -0.896785
C      3.618903    0.212986    2.883818
C      3.851174    0.770135    1.633388
C      2.613037   -0.714193    3.024506
C      3.090623    0.405065    0.546885
C      1.862038   -1.066408    1.922295
C     -3.462299    0.293057   -0.319548
C     -2.164501    1.414624   -1.916017
C     -2.368191   -0.415563    0.086947
C     -1.030232    0.720867   -1.537907
C     -3.395243    1.226120   -1.329120
C      1.226665   -0.951472   -0.476330
C      2.078361   -0.524949    0.677599
C     -1.137339   -0.203871   -0.524553
O     -0.094266   -0.963516   -0.047951
H     -4.355452    2.522584   -2.691952
H     -5.463214    1.312109   -1.864614
H     -4.765576    2.767504   -0.974572
H      1.113087   -3.073202   -0.215584
H      1.217093   -2.532508   -1.906035
H      2.692282   -2.526492   -0.820543
H      4.225621    0.505567    3.745707
H      4.643684    1.494160    1.545574
H      2.414886   -1.160882    3.989676
H      3.259305    0.829841   -0.432803
H      1.062546   -1.800766    2.024915
H     -4.447255    0.148572    0.143343
H     -2.106897    2.151019   -2.714239
H     -2.479128   -1.130002    0.878763
H     -0.079442    0.898397   -2.025100
H      1.375290   -0.239506   -1.277268
