32

C     -5.191149    1.065705   -0.731682
C      1.351117   -1.872432    1.650076
C      4.532671    0.771497   -1.080657
C      3.300513    1.203886   -1.512430
C      4.623007   -0.094775   -0.012991
C      2.140550    0.762793   -0.866037
C      3.467950   -0.521110    0.614662
C     -3.265186   -0.417766   -1.372988
C     -3.015130    1.009731    0.458157
C     -1.990989   -0.899039   -1.206220
C     -1.712416    0.538954    0.653787
C     -3.814740    0.539960   -0.558485
C      0.998275   -0.579194    0.897139
C      2.230087   -0.098558    0.195587
C     -1.178901   -0.418041   -0.169106
O      0.063888   -0.939787   -0.068289
H     -5.912641    0.330156   -0.325658
H     -5.249383    2.048568   -0.224021
H     -5.361566    1.149305   -1.826994
H      0.412624   -2.354753    1.934323
H      1.911116   -1.638009    2.566079
H      1.949897   -2.490445    0.950104
H      5.460793    1.099233   -1.566581
H      3.256806    1.883314   -2.352122
H      5.591996   -0.457057    0.354177
H      1.202414    1.117625   -1.226593
H      3.594944   -1.204716    1.452454
H     -3.914061   -0.781428   -2.177244
H     -3.416514    1.771126    1.126187
H     -1.608973   -1.659910   -1.884822
H     -1.123752    0.956407    1.486862
H      0.666757    0.178761    1.601362
