39

C     -1.678263   -2.369209   -2.093769
C     -0.844031   -1.364694    0.745788
C     -2.042854   -1.070407   -1.465516
C     -3.185415    2.819848    1.209892
C      4.709589    0.621421    1.566036
C     -3.705229    1.556561    1.280807
C     -1.985055    3.031877    0.593704
C      3.823498   -0.354764    1.984924
C      4.563534    1.082801    0.276079
C     -3.020569    0.475043    0.729024
C     -1.324653    1.956147    0.056021
C      2.824697   -0.866005    1.171822
C      3.577709    0.588040   -0.546483
C     -1.824209    0.699582    0.117598
C      2.699087   -0.390606   -0.107253
C     -1.099603   -0.514695   -0.464103
N      0.104951    0.016116   -0.986110
O      2.034756   -0.832110   -2.603563
O      1.282782   -2.411435   -0.855837
S      1.432926   -0.985046   -1.212081
H     -1.753210   -3.196291   -1.389058
H     -2.453609   -2.536840   -2.910245
H     -0.723054   -2.368313   -2.652913
H     -1.760319   -1.388007    1.398411
H     -0.530594   -2.388849    0.554080
H     -0.096136   -0.815172    1.379759
H     -3.077091   -1.217989   -1.032593
H     -2.210596   -0.286699   -2.256657
H     -3.741163    3.636774    1.648938
H      5.488807    1.008133    2.229801
H     -4.663619    1.346168    1.766026
H     -1.553551    4.013420    0.524165
H      3.914803   -0.738803    2.997557
H      5.242467    1.852853   -0.098888
H     -3.481630   -0.501128    0.815779
H     -0.379217    2.131799   -0.428137
H      2.141989   -1.644369    1.541394
H      3.431037    0.934751   -1.580808
H     -0.138963    0.470096   -1.903594
