38

C     -0.871237   -1.798978   -1.513898
C     -0.997715    1.983505   -1.148870
C     -0.998469   -0.344924   -1.906222
C      4.948912   -0.714048    1.361931
C     -4.262415    0.052123    1.980127
C      5.038119   -0.196604    0.092246
C      3.699212   -0.865632    1.943265
C     -3.233574    0.957174    2.268550
C     -4.192521   -0.699037    0.813092
C      3.866234    0.153598   -0.557258
C      2.547451   -0.509188    1.274630
C     -2.174804    1.072769    1.377983
C     -3.112571   -0.541590   -0.039163
C      1.394761    0.403334   -0.768147
C      2.623174    0.003217    0.017509
C     -2.084743    0.332071    0.207577
C     -0.917290    0.540656   -0.678225
O      0.256940    0.233561   -0.031599
H     -0.975916   -1.975428   -0.414980
H      0.163448   -2.186149   -1.752390
H     -1.543593   -2.447899   -2.111319
H     -0.165882    2.595516   -0.715981
H     -1.935030    2.494031   -0.815575
H     -0.958791    2.053386   -2.254929
H     -2.007584   -0.145442   -2.384501
H     -0.274273   -0.070505   -2.695701
H      5.856637   -0.991669    1.888524
H     -5.091532   -0.046144    2.671381
H      5.985878   -0.053329   -0.407558
H      3.634578   -1.284032    2.957936
H     -3.290972    1.541871    3.171989
H     -4.972378   -1.406177    0.555302
H      3.944160    0.562728   -1.560349
H      1.579395   -0.634094    1.724988
H     -1.381730    1.776011    1.619765
H     -3.135851   -1.150312   -0.941024
H      1.569017    1.483588   -1.064218
H      1.470956   -0.177956   -1.705709
