45

C      0.935324    2.297852    0.010883
C      3.353289    2.282635    0.458331
C      1.796457   -1.759666   -2.046388
C      2.796004   -2.491042    0.056697
C      0.526181   -3.210523   -0.439574
C     -4.653163    1.793686   -0.958332
C     -3.529892    1.600353   -1.729705
C     -4.640841    1.363006    0.343862
C     -2.433115    0.982443   -1.170450
C      2.219428    0.127594   -0.033715
C      2.058083    1.471758    0.578463
C     -3.528717    0.732839    0.921979
C     -2.415407    0.538969    0.164337
C      1.062073   -0.816340    0.090952
C     -3.662506    0.335156    2.300408
C     -1.215662   -0.082630    0.610088
C      1.491823   -2.079045   -0.604800
O     -4.769813    0.573667    2.914272
O     -2.723501   -0.287671    3.065961
O     -0.944561   -0.549099    1.708083
O     -0.103980   -0.248875   -0.230250
H      0.132460    2.418054    0.784329
H      1.327563    3.324175   -0.239968
H      0.476605    1.851344   -0.891997
H      3.213344    3.037818   -0.338057
H      3.559267    2.842811    1.389926
H      4.203000    1.650390    0.188841
H      1.611511   -2.639199   -2.710762
H      2.865828   -1.491303   -2.211837
H      1.228431   -0.853822   -2.403372
H      3.682601   -2.085354   -0.466352
H      2.926420   -3.607694    0.033039
H      2.856029   -2.202245    1.109330
H     -0.083813   -3.134716    0.483355
H     -0.133675   -3.333302   -1.349047
H      1.041595   -4.204743   -0.358558
H     -5.526378    2.284719   -1.400745
H     -3.504686    1.931712   -2.773665
H     -5.524387    1.510689    0.964039
H     -1.554873    0.834522   -1.783468
H      2.445806    0.291879   -1.126352
H      3.158244   -0.314287    0.398935
H      1.871297    1.376594    1.680367
H      1.036764   -1.127824    1.183945
H     -2.926457   -0.935285    3.826971
