27

C     -3.428926    0.840425    0.851639
C      3.662620   -0.237339    0.873883
C      2.563035   -0.522869    1.630877
C      3.466884    0.184808   -0.407657
C      1.328621   -0.381895    1.098757
C     -2.667853   -0.125507   -0.022759
C      2.180377    0.330419   -0.958350
C      1.060192    0.049077   -0.215623
C      2.113229    0.778316   -2.313474
C     -0.304514    0.161861   -0.671789
C     -3.322050   -1.507518    0.019564
F     -2.596555   -2.346186   -0.787631
F     -3.485523   -1.969743    1.288135
F     -4.567030   -1.349144   -0.575121
O      1.091113    0.963473   -2.975220
O      3.305847    1.053533   -3.020427
O     -0.769135    0.511259   -1.754343
O     -1.306626   -0.182500    0.266822
H     -3.441796    1.857333    0.376245
H     -4.482990    0.510403    0.881121
H     -3.045657    0.906373    1.869021
H      4.663772   -0.336747    1.260787
H      2.717170   -0.861739    2.659322
H      4.339972    0.407464   -0.996551
H      0.474870   -0.612560    1.713407
H     -2.781997    0.222513   -1.070285
H      3.232949    1.656490   -3.821437
