25

C     -1.524185    1.097890    0.302782
C     -1.934443   -0.348381    0.161823
C     -0.256768    1.252825   -0.545871
C      0.952525    1.044365    0.305429
C      1.517914   -0.326989   -0.064530
C      0.387579   -1.297190    0.266456
C     -0.774763   -0.935036   -0.611825
N     -0.461530    0.176683   -1.513275
O      1.889046    2.039165    0.236825
O      2.684960   -0.614930    0.567195
O      0.075605   -1.052526    1.623333
O     -1.250715   -2.040795   -1.299308
H     -1.243479    1.251078    1.365066
H     -2.302643    1.806876    0.006185
H     -2.138890   -0.850263    1.105875
H     -2.810694   -0.353794   -0.546924
H     -0.238088    2.243435   -1.034000
H      0.635234    0.936920    1.383568
H      1.586636   -0.334319   -1.188345
H      0.711418   -2.336115    0.191511
H     -1.295926    0.381191   -2.068703
H      1.971224    2.531424    1.112711
H      3.404340   -0.698063   -0.137336
H      0.956717   -0.975205    2.080834
H     -0.541074   -2.598243   -1.699475
