24

C     -2.938919    1.143850    1.047375
C      4.127332    0.019885   -0.281876
C      3.168880    0.855371   -0.816475
C      3.673322   -1.019926    0.510649
C      1.815969    0.689147   -0.590901
C      2.323515   -1.185654    0.735618
C     -2.423813   -0.061718    0.283549
C      1.374732   -0.347886    0.198614
C     -0.023365   -0.596227    0.487503
C     -3.271325   -0.218107   -0.936845
F     -3.206745    0.905411   -1.749407
F     -3.004578   -1.365878   -1.651271
F     -4.592994   -0.317389   -0.512357
O     -0.310393   -1.571502    1.220088
O     -1.066734    0.163544    0.014661
H     -2.516083    2.094388    0.660733
H     -2.711223    1.068764    2.131866
H     -4.043869    1.243635    0.975451
H      5.191516    0.140011   -0.451580
H      3.517116    1.669744   -1.436611
H      4.396261   -1.694992    0.946563
H      1.078626    1.350214   -1.015507
H      2.044445   -2.023608    1.367577
H     -2.601673   -0.941077    0.937757
