45

C     -2.468717    3.429761   -0.377088
C     -2.246695   -1.465816   -1.716493
C     -3.132134   -2.049604    0.466672
C     -0.990792   -2.983750   -0.207122
C     -2.114509    3.065094    1.051198
C     -1.292525    1.795824    0.994802
C      4.850861    0.528515   -1.690253
C      3.607461    0.567025   -2.274379
C      4.932908    0.192526   -0.373296
C      2.496202    0.270470   -1.527488
C     -2.063397    0.661087    0.355449
C      3.792806   -0.115868    0.408868
C      2.556793   -0.079948   -0.162729
C     -1.158501   -0.553032    0.347633
C      3.996433   -0.457840    1.791592
C      1.309004   -0.372585    0.521749
C     -1.845964   -1.747949   -0.277120
O      5.219003   -0.456058    2.214008
O      3.097674   -0.789949    2.749434
O      1.125072   -0.696426    1.699592
O      0.093286   -0.294700   -0.204008
H     -3.519567    3.116205   -0.542776
H     -1.778622    2.913805   -1.102730
H     -2.325230    4.518698   -0.572722
H     -3.297668   -1.100428   -1.768595
H     -2.216110   -2.438574   -2.250737
H     -1.617188   -0.696004   -2.189709
H     -3.483652   -3.063018    0.228476
H     -3.870051   -1.267005    0.135441
H     -2.990842   -1.879178    1.564697
H     -1.584284   -3.918769   -0.215940
H     -0.328703   -3.017466   -1.108560
H     -0.390270   -3.011806    0.728417
H     -1.481806    3.883973    1.449579
H     -2.984650    2.978924    1.709199
H     -0.362088    1.976114    0.431412
H     -1.003304    1.523676    2.030309
H      5.708619    0.768790   -2.310315
H      3.526891    0.835880   -3.333385
H      5.906272    0.165929    0.070336
H      1.510652    0.295219   -1.968346
H     -2.932653    0.415786    1.022841
H     -2.465709    0.920800   -0.622640
H     -0.998676   -0.818305    1.421437
H      3.214371   -1.550024    3.403287
