20

C     -3.170466    0.271693   -1.331616
C      1.143556   -1.040215   -0.235475
C     -1.756187    0.532861   -0.977167
C      0.313268    0.123368    0.199674
C      2.586874   -0.881113   -0.121770
C      0.477500    0.514504    1.605998
O     -1.200826    1.510106   -1.565101
O      3.295951   -1.885814   -0.451157
O      3.279623    0.231272    0.300920
O      1.543200    0.869039    2.146414
O     -0.647280    0.495874    2.432602
O     -1.033563   -0.212212   -0.065825
H     -3.669071   -0.169425   -0.426199
H     -3.668985    1.190294   -1.666846
H     -3.234277   -0.532195   -2.112127
H      0.908475   -1.214880   -1.316671
H      0.823156   -1.971411    0.286076
H      0.595326    1.008657   -0.422672
H      4.120136    0.104972    0.852707
H     -0.706411    1.054625    3.273481
