28

C     -5.249093   -1.215701   -0.241122
C      2.260720    0.766202   -1.488073
C      2.092004    0.133661    0.780000
C      3.611916    0.566121   -1.400875
C      3.443279   -0.062050    0.852025
C     -2.112884    0.669953    0.808409
C     -3.950891   -1.041700    0.510788
C      1.458170    0.548124   -0.372119
C      4.237679    0.150742   -0.241950
C     -2.882897   -0.201565   -0.127684
C      0.012692    0.751439   -0.428179
N      5.648087   -0.038208   -0.219851
O     -0.567186    1.128455   -1.474867
O      6.388840    0.186429   -1.330905
O      6.204551   -0.412831    0.829106
O     -0.712426    0.518567    0.704531
O     -2.773861   -1.572046   -0.078308
H     -5.947101   -0.414580    0.111970
H     -5.699343   -2.201177   -0.037248
H     -5.045214   -1.050859   -1.319898
H      1.749065    1.091677   -2.386569
H      1.471423   -0.037495    1.651694
H      4.231574    0.739028   -2.278201
H      3.908466   -0.390382    1.781279
H     -2.321956    1.738329    0.506357
H     -2.438202    0.594011    1.854005
H     -3.952499   -1.146523    1.597683
H     -3.064910    0.202379   -1.140197
