20

C      3.392764    0.046928   -0.194591
C     -0.979031   -1.123259    0.681729
C      1.981395    0.003309   -0.601126
C     -0.379258    0.057542   -0.010838
C     -2.396457   -1.292953    0.400927
C     -0.981486    1.346946    0.367063
O      1.660015   -0.118633   -1.811707
O     -3.024263   -2.189490    1.068762
O     -3.130425   -0.589554   -0.509990
O     -2.173113    1.686203    0.202671
O     -0.158751    2.312151    0.975238
O      0.999001    0.096028    0.343945
H      3.658075   -0.825110    0.450680
H      3.641490    1.008789    0.290276
H      4.061610   -0.014968   -1.093957
H     -0.417910   -2.025030    0.303865
H     -0.739404   -1.043575    1.762879
H     -0.414134   -0.053997   -1.122503
H     -4.125042   -0.571706   -0.533937
H     -0.475077    3.290380    1.037747
