34

C      4.293427   -0.612838   -1.646750
C      4.373106   -1.367501   -0.498638
C      3.280955    0.303168   -1.844330
C     -4.672475    1.418638   -0.934539
C     -4.006903    2.457862   -0.341811
C      3.395761   -1.198435    0.497264
C      2.340696    0.444758   -0.851021
C     -4.043527    0.214196   -0.991141
C     -2.754534    2.291181    0.174964
C      2.372750   -0.297256    0.338552
C     -2.757441   -0.004824   -0.473984
C     -2.099616    1.043772    0.117973
C      1.340751   -0.088581    1.354430
C     -2.199380   -1.327318   -0.598379
C     -0.771872    0.950015    0.691302
C      1.471362   -0.953637    2.562078
F      2.676790   -0.718288    3.193783
F      1.353856   -2.282908    2.140417
F      0.504024   -0.675131    3.515744
O     -1.110244   -1.717738   -0.223915
O     -2.987682   -2.325952   -1.230233
O     -0.298627    2.023064    1.205790
O      0.050354   -0.117438    0.763513
H      5.041910   -0.734286   -2.422758
H      5.152186   -2.095900   -0.307529
H      3.255839    0.878183   -2.765785
H     -5.680780    1.542117   -1.353599
H     -4.497615    3.437860   -0.286314
H      3.449577   -1.784032    1.387942
H      1.545091    1.145799   -0.975146
H     -4.555061   -0.647467   -1.464461
H     -2.220111    3.132301    0.652772
H      1.506017    0.976355    1.727526
H     -2.748583   -3.309739   -1.113717
