23

C     -0.595670    0.408562    0.909797
C     -0.180801   -1.010054    0.577834
C     -1.852551    0.706419    0.197022
C     -0.938326   -1.268931   -0.718563
C     -1.901243   -0.317654   -0.901014
C      0.917272    0.839927   -1.002858
C      1.439022   -0.376729   -1.075504
C      0.603035    1.191638    0.407408
C      1.317370   -0.927262    0.301146
C      1.693780    0.339849    1.095175
Cl    -1.993847    2.356846   -0.397086
Cl     0.639476    1.881938   -2.374693
Cl     2.139140   -1.245303   -2.419810
Cl     0.640841    2.849908    0.807435
Cl     2.229430   -2.313277    0.666333
Cl     1.384431    0.151955    2.811147
Cl     3.304103    0.904437    0.709391
O     -2.280545   -1.627164   -0.491419
H     -0.637407    0.500505    2.011714
H     -0.419301   -1.733030    1.357777
H     -2.710048    0.474254    0.893739
H     -0.393924   -1.777614   -1.548863
H     -2.404237   -0.009220   -1.816107
