28

C     -5.255628   -0.564476   -0.680086
C      2.391221   -1.100662   -0.064862
C      2.031711    1.180079    0.362024
C      3.725898   -0.891907   -0.340898
C      3.369275    1.409560    0.088448
C     -2.150406    0.231687    1.182582
C     -4.090813    0.338801   -0.436244
C      1.538133   -0.084117    0.285046
C      4.222096    0.375937   -0.263975
C     -2.822518   -0.392727    0.006608
C      0.131272   -0.395149    0.562307
N      5.602726    0.641531   -0.542026
O     -0.287252   -1.577814    0.480379
O      6.426534   -0.380833   -0.886055
O      6.047279    1.799785   -0.469749
O     -0.784284    0.573323    0.919325
O     -2.946232    0.264767   -1.190453
H     -5.653363   -0.862619    0.334273
H     -6.097306   -0.052743   -1.191426
H     -4.996055   -1.502071   -1.187059
H      2.014272   -2.127556   -0.132917
H      1.416769    2.007020    0.628461
H      4.357852   -1.722187   -0.611744
H      3.814358    2.395102    0.134569
H     -2.677976    1.131187    1.557719
H     -2.202366   -0.509745    2.027558
H     -4.310455    1.314382   -0.007683
H     -2.814740   -1.498556   -0.038792
