20

C     -2.092494    0.441136    0.827904
C      2.756927    0.247320    0.245815
C      2.195739   -0.870775    0.804146
C      1.963729    1.134501   -0.439042
C      0.852324   -1.131484    0.697498
C      0.599046    0.877576   -0.552034
C     -1.374587   -0.523137   -0.095750
C      0.060413   -0.241763    0.011311
N     -1.799792   -0.344409   -1.453668
O     -3.136549   -0.499504   -1.812839
O     -1.021079   -0.053264   -2.357397
H     -2.079687    1.434753    0.332433
H     -1.531278    0.478503    1.769551
H     -3.144197    0.127040    0.943404
H      3.808907    0.424994    0.345110
H      2.813712   -1.563315    1.338531
H      2.353837    2.019085   -0.891316
H      0.398753   -2.015586    1.137050
H     -0.000276    1.610309   -1.103505
H     -1.623450   -1.551980    0.252802
