25

C      0.038783   -0.522860    0.007054
C      1.367562   -0.813732    0.649274
C     -1.049725   -0.672265    1.087613
C      2.546285   -0.735477   -0.267174
C      2.725894    0.592730   -0.881095
C     -2.703569    0.913338    0.116624
N     -2.047456    1.938906    0.509371
N     -3.806069    1.110342   -0.750105
N     -2.340798   -0.400188    0.535732
O      3.718279   -1.049304    0.435912
O      3.765141    1.276051   -0.691140
O      1.740220    1.116264   -1.687668
H     -0.176701   -1.213760   -0.832496
H     -0.022596    0.502224   -0.398005
H      1.342444   -1.851820    1.070683
H      1.539231   -0.136624    1.523383
H     -1.001144   -1.716853    1.447974
H     -0.798591   -0.026263    1.944955
H      2.497972   -1.484453   -1.088089
H     -1.238695    1.890178    1.134548
H     -4.455010    1.884320   -0.573781
H     -3.928881    0.461513   -1.547359
H     -3.052274   -1.153719    0.423423
H      3.815823   -2.022367    0.504348
H      1.523876    2.113821   -1.722850
