20

C     -2.053406   -1.185105    0.474718
C      2.834022    0.115804   -0.268037
C      2.105347    1.273810   -0.314730
C      2.159633   -1.055039    0.004957
C      0.741650    1.262275   -0.094913
C      0.803999   -1.069283    0.223812
C     -1.382138    0.148395    0.398969
C      0.063969    0.092856    0.178300
N     -1.997107    0.946490   -0.618544
O     -3.343796    1.297155   -0.561450
O     -1.370351    1.365375   -1.603042
H     -2.098441   -1.602116   -0.566989
H     -1.598922   -1.889070    1.175400
H     -3.108038   -0.994853    0.825509
H      3.901502    0.146837   -0.443223
H      2.597805    2.218043   -0.526683
H      2.744917   -1.981719    0.042008
H      0.225361    2.217063   -0.144615
H      0.298951   -1.993981    0.434996
H     -1.524957    0.687061    1.383558
