25

C      3.580503   -1.185441    0.741046
C     -3.321520   -1.307360    0.377639
C     -3.230058    0.046364    0.138381
C     -2.157768   -2.042319    0.294828
C     -2.013728    0.623621   -0.170029
C     -0.936591   -1.462721   -0.014816
C      2.550549   -0.648120   -0.207948
C     -0.846074   -0.106530   -0.254320
C      0.468769    0.524609   -0.588914
C      0.391277    1.994809   -0.415996
N      0.607792    2.775441   -1.403665
O      2.648897   -0.774090   -1.441969
O      0.081601    2.535393    0.825575
O      1.452120    0.011119    0.309189
H      4.582132   -1.145691    0.251264
H      3.595491   -0.571191    1.655114
H      3.340377   -2.237478    0.932524
H     -4.278399   -1.765987    0.620995
H     -4.129759    0.657411    0.195336
H     -2.218963   -3.109089    0.481460
H     -1.915878    1.700117   -0.364693
H     -0.032615   -2.060189   -0.074757
H      0.734009    0.313632   -1.631534
H      0.574316    3.806178   -1.369772
H      0.473522    3.427512    1.115060
