25

C      2.424618    0.305025    2.259849
C     -3.146193    1.305814    0.063426
C     -2.454732    1.810432   -1.016299
C     -2.596841    0.271953    0.777504
C     -1.232523    1.265658   -1.350772
C     -1.358283   -0.270731    0.428299
C     -0.654761    0.223868   -0.649680
C      0.654602   -0.358126   -1.007991
C      1.650592   -0.282893    0.059616
C      0.445087   -1.796657   -1.428909
F     -0.399402   -1.887051   -2.519704
F      0.011368   -2.556150   -0.361051
F      1.648982   -2.376167   -1.841453
N      1.456700    0.228627    1.213814
O      2.914704   -0.804229   -0.182075
H      3.479251    0.305022    1.906417
H      2.263802   -0.523954    2.974649
H      2.226913    1.249987    2.829169
H     -4.104571    1.739811    0.318208
H     -2.881410    2.625173   -1.583779
H     -3.145723   -0.120223    1.625417
H     -0.730695    1.693434   -2.201778
H     -1.017129   -1.077808    1.053537
H      1.030046    0.223503   -1.889798
H      3.515597   -1.194317    0.523386
