32

C     -1.036547   -1.834283    1.080828
C     -3.639208    1.979055   -0.594654
C      3.944285    0.708476    1.206395
C     -2.497502    2.391261    0.054971
C     -3.739119    0.674389   -0.983054
C      3.100580    1.470466    0.420297
C      3.864803   -0.651998    1.097924
C     -1.451894    1.534136    0.327238
C     -2.687290   -0.189145   -0.709509
C      2.204130    0.897248   -0.448174
C      2.990644   -1.263865    0.249779
C     -0.457177   -0.754054    0.201474
C     -1.559972    0.226324   -0.065866
C      2.161866   -0.478775   -0.521534
C      0.007367   -1.249515   -1.094648
N      1.248880   -1.104908   -1.407082
O     -0.818606   -1.875864   -2.024227
H     -0.318929   -2.054256    1.905493
H     -1.229236   -2.778308    0.552801
H     -1.971257   -1.494851    1.565450
H     -4.442502    2.698993   -0.787766
H      4.650464    1.151599    1.890329
H     -2.414125    3.417748    0.362820
H     -4.638020    0.362683   -1.491170
H      3.132936    2.564859    0.477442
H      4.521323   -1.255025    1.709374
H     -0.548105    1.846938    0.837963
H     -2.837041   -1.215862   -1.048824
H      1.548402    1.472189   -1.059546
H      2.923059   -2.340894    0.159467
H      0.365269   -0.247870    0.727808
H     -0.377479   -2.606890   -2.591801
