25

C      3.545939   -1.390150    0.693466
C     -3.369445   -1.090590    0.175157
C     -2.414724   -1.504024   -0.728492
C     -3.057083   -0.078279    1.036751
C     -1.181568   -0.918706   -0.766922
C     -1.810742    0.506314    0.990866
C      2.503191   -0.376595    0.951340
C     -0.836274    0.112415    0.096852
C      0.495155    0.750204    0.060858
C      0.548820    1.826410   -0.931401
N      1.337939    1.880420   -1.941879
O      2.406885    0.313533    1.978033
O     -0.330436    2.892068   -0.774938
O      1.547671   -0.173431   -0.032265
H      3.045417   -2.387443    0.698939
H      4.303907   -1.426851    1.495711
H      3.992170   -1.258188   -0.314077
H     -4.325939   -1.596763    0.152358
H     -2.663678   -2.318063   -1.422464
H     -3.787914    0.253067    1.743477
H     -0.423077   -1.226481   -1.463970
H     -1.548730    1.316061    1.673871
H      0.624443    1.244642    1.071556
H      2.042574    1.186502   -2.205126
H     -0.644502    3.463928   -1.556925
