51

C      6.528679    0.078975    2.714431
C     -2.078651    1.024660   -2.900700
C     -4.545858    3.244100    1.246677
C     -2.543144   -3.615756    0.361284
C     -3.225157    3.340288    1.629360
C     -4.935563    2.292196    0.331220
C     -1.715883   -2.894447    1.192712
C     -3.079313   -2.976296   -0.725935
C     -2.335760    2.458909    1.064586
C     -4.004018    1.431714   -0.205577
C     -1.435159   -1.571619    0.940701
C     -2.788997   -1.634495   -0.973469
C      4.548665   -1.197297    1.971599
C      5.379099    0.524977    0.551825
C      3.540784   -1.472150    1.046811
C      4.395657    0.245254   -0.333715
C      0.055703    0.023086   -2.110111
C      5.462128   -0.200751    1.719559
C     -1.137696    0.899508   -1.760212
C     -2.672865    1.484272    0.141003
C     -1.962811   -0.878307   -0.161133
C      3.470896   -0.739581   -0.113613
C     -1.664980    0.541221   -0.429260
O      2.867225   -0.735394   -2.661935
O      1.819323   -2.452982   -1.328941
O      0.925113   -0.072240   -1.005476
S      2.244770   -1.014552   -1.325264
H      7.372510    0.649048    2.240488
H      6.177981    0.635200    3.590511
H      6.951973   -0.903593    3.006895
H     -3.003575    1.527657   -2.618390
H     -2.199671    0.113590   -3.526014
H     -1.604310    1.749017   -3.648849
H     -5.274600    3.932931    1.680221
H     -2.742985   -4.644627    0.583788
H     -2.900377    4.097901    2.361498
H     -5.998581    2.226183    0.033122
H     -1.263398   -3.347636    2.067504
H     -3.744291   -3.503699   -1.420212
H     -1.301001    2.547884    1.376251
H     -4.379510    0.713304   -0.902511
H     -0.774210   -1.004392    1.610461
H     -3.217672   -1.144678   -1.826675
H      4.564061   -1.793505    2.861466
H      6.122849    1.322447    0.366918
H      2.810445   -2.250476    1.221438
H      4.364553    0.847990   -1.253758
H      0.602490    0.455773   -2.971147
H     -0.248512   -1.011582   -2.354248
H     -0.668609    1.931652   -1.639166
H     -0.757747    0.720320    0.275676
