39

C      6.070786   -0.117360   -0.821092
C      5.060662    1.252719    0.935117
C     -6.218085    0.524994    0.216102
C     -4.543745    0.453482   -1.577246
C      0.565472   -0.219881    1.313921
C      3.658778    0.237308   -0.814239
C     -4.168303   -0.827704    0.528666
C      4.852422    0.016512    0.076629
C     -4.733150    0.454834   -0.079571
C     -0.442292   -0.336127    0.194882
C      1.883597   -0.583734    0.672946
C     -1.821891   -0.026536    0.608904
O     -0.331936   -1.561291   -0.425081
O      2.446279   -1.677574    0.836422
O     -2.132861    0.996833    1.262043
O      2.455993    0.372130   -0.129094
O     -2.813971   -0.911613    0.254568
H      6.467175   -1.150538   -0.815835
H      5.829367    0.112627   -1.879982
H      6.894704    0.561422   -0.543827
H      5.725544    1.970075    0.411493
H      5.544940    1.016437    1.904028
H      4.109643    1.804529    1.109047
H     -6.462549    0.162640    1.237536
H     -6.564519    1.572239    0.062083
H     -6.727161   -0.171051   -0.491864
H     -4.824065   -0.519875   -1.990398
H     -3.463633    0.694908   -1.800179
H     -5.216142    1.228933   -2.008973
H      0.636374    0.793282    1.727243
H      0.356199   -0.960643    2.118830
H      3.647107   -0.551733   -1.608670
H      3.837157    1.184699   -1.372088
H     -4.679740   -1.708856    0.043397
H     -4.401564   -0.881614    1.605226
H      4.778516   -0.910521    0.667842
H     -4.246851    1.329715    0.406787
H     -0.130338    0.415708   -0.582927
H     -0.897917   -1.598229   -1.252647
