36

C      5.437923   -1.474233    1.011621
C     -5.928742   -0.812655    0.076561
C      4.049322   -0.936404    0.646789
C      3.548399   -0.057836    1.769252
C      2.190557    0.464025    1.415040
C      2.131332    1.286740    0.171260
C      0.725175    1.748801   -0.062072
C     -0.256563    0.633693   -0.225417
C     -1.654071    1.214608   -0.459784
C     -4.854747   -0.837109   -0.993499
C     -3.893423    0.271383   -0.833628
O     -4.171134   -2.045660   -0.878109
O     -4.316672    1.453359   -0.905517
O     -2.538098    0.103174   -0.606689
H      5.418796   -1.754689    2.071482
H      5.642022   -2.336629    0.365196
H      6.136381   -0.627346    0.805911
H     -6.594736   -1.676911   -0.085906
H     -5.420125   -0.968265    1.050284
H     -6.513198    0.131002    0.044973
H      3.341811   -1.810501    0.596061
H      4.046138   -0.470906   -0.336789
H      3.409125   -0.734731    2.651300
H      4.275904    0.741404    2.010161
H      1.549489   -0.439057    1.236823
H      1.826626    1.062882    2.263923
H      2.767477    2.216504    0.251335
H      2.506820    0.773439   -0.735292
H      0.732577    2.311868   -1.038491
H      0.380869    2.478808    0.693608
H     -0.348705   -0.033363    0.640161
H      0.064321    0.020781   -1.085377
H     -1.948369    1.871810    0.381349
H     -1.658283    1.846473   -1.381569
H     -5.342376   -0.832236   -1.989147
H     -4.741821   -2.782221   -1.241103
