25

C      3.762595    1.104519   -0.045106
C      3.376861    0.095417   -0.899526
C      2.864152    1.656093    0.854666
C      2.083957   -0.352003   -0.840941
C      1.555377    1.176499    0.887388
C     -2.721540   -0.384122   -1.436599
C      1.155416    0.169502    0.040417
C     -3.532163    0.342137   -0.446862
C     -0.237290   -0.301272    0.109343
C     -0.349300   -1.749279    0.332470
O     -3.624197   -0.094603    0.744539
O     -4.190193    1.504761   -0.834597
O      0.688203   -2.451411    0.431885
O     -1.569750   -2.386048    0.440501
S     -0.998594    0.160430   -1.491710
H      4.771451    1.499528   -0.045481
H      4.097742   -0.316685   -1.591225
H      3.176686    2.443447    1.517027
H      1.738918   -1.152157   -1.502892
H      0.874631    1.637877    1.611964
H     -3.148507   -0.166811   -2.451960
H     -2.789366   -1.487548   -1.325090
H     -0.760780    0.249129    0.911896
H     -4.550494    2.114497   -0.118989
H     -1.673815   -3.311896    0.877485
