23

C      0.995919   -0.852890    1.197725
C      2.249486   -0.335280    1.518739
C     -0.904645   -1.134821   -0.334630
C      0.407275   -0.586291   -0.012889
C     -2.053095   -0.231932    0.075604
C     -2.007211    1.079768   -0.572689
C      2.295263    0.703319   -0.590097
N     -3.278964   -0.947494   -0.290050
N      2.905354    1.446037   -1.454587
N      2.855898    0.432399    0.598286
N      1.070625    0.186945   -0.881429
O     -2.920818    1.480504   -1.326338
O     -0.926983    1.911358   -0.354120
H      0.526541   -1.475703    1.969661
H      2.690396   -0.559954    2.477475
H     -0.987828   -1.359691   -1.426715
H     -1.106572   -2.121090    0.173444
H     -2.059826   -0.174233    1.196284
H     -3.162587   -1.152730   -1.326716
H     -3.196681   -1.901129    0.164594
H      3.828176    1.831951   -1.228426
H      3.795677    0.827497    0.824289
H     -1.015399    2.933462   -0.349090
