27

C     -4.173209    0.426404   -1.021869
C      4.596203    0.600106   -0.445460
C     -0.332802   -0.612389    2.450558
C     -4.037211   -0.018207    0.390668
C      3.862207   -0.090840   -1.559270
C     -0.247299   -0.187436    0.999539
C     -1.606145   -0.393478    0.428244
C      1.784770   -0.251597   -0.283799
O     -1.703737   -1.137991   -0.578484
O      1.870492    0.997160   -0.136485
O     -2.744778    0.172508    0.927045
O      2.784705   -0.865465   -1.008998
O      0.717649   -0.889976    0.281928
H     -4.873791    1.279221   -1.166445
H     -4.618312   -0.420311   -1.615137
H     -3.225573    0.718855   -1.508656
H      5.642178    0.803515   -0.777129
H      4.136626    1.574038   -0.164901
H      4.614350   -0.095691    0.421330
H     -0.868848   -1.566827    2.501788
H     -0.975307    0.143978    2.962738
H      0.637170   -0.602079    2.962572
H     -4.391614   -1.070130    0.539839
H     -4.732212    0.607877    1.013320
H      3.361568    0.676413   -2.207972
H      4.489178   -0.689863   -2.216900
H      0.033741    0.892203    0.997242
