30

C     -5.672803    0.562395    1.477281
C      4.496883    0.884850    1.476519
C      1.396927   -1.692107   -1.878017
C     -4.598847    0.939226    0.507466
C      4.636093    0.097329    0.194021
C     -1.069622   -0.477309    0.077272
C      1.041944   -0.865220   -0.657223
C     -2.300482    0.326582   -0.094367
C      2.227718   -0.023118   -0.332378
O     -2.356587    1.212010   -0.983416
O      2.161108    1.229801   -0.241629
O     -3.418902    0.142568    0.699085
O      3.453188   -0.614649   -0.119222
O     -0.085815   -0.107734   -0.835962
H     -6.206827    1.441837    1.907237
H     -5.263903   -0.038604    2.337203
H     -6.451827   -0.082982    1.020174
H      5.534415    1.153071    1.821413
H      3.967162    1.823438    1.291549
H      4.070560    0.247338    2.254945
H      1.372790   -1.014487   -2.762304
H      0.782038   -2.589554   -1.989400
H      2.460659   -1.997890   -1.756404
H     -4.996530    0.810436   -0.521516
H     -4.384420    2.014786    0.638357
H      5.438857   -0.662503    0.336273
H      4.940587    0.736660   -0.651990
H     -1.315000   -1.536197   -0.116719
H     -0.735219   -0.343660    1.126815
H      0.875855   -1.576313    0.169943
