33

C     -4.581226   -0.794424   -0.425218
C      4.258626   -1.541513   -1.241460
C     -3.322912   -1.605027   -0.248883
C      2.980138   -0.853038   -0.803111
C     -2.599326   -1.226267    1.033435
C      3.358618    0.140893    0.262796
C     -0.998553    2.142323    0.160928
C      0.360454    2.378750    0.786906
C     -1.379085    0.723944    0.127562
C      1.451127    1.685261    0.064924
O      0.366992    2.065928    2.128656
O     -0.917569   -0.003191   -0.788194
O      1.633939    1.817533   -1.150575
O     -2.224716    0.134796    1.054666
O      2.293552    0.861483    0.775893
H     -5.438526   -1.425240   -0.790448
H     -4.858981   -0.405709    0.581081
H     -4.476110    0.011123   -1.181566
H      4.899886   -1.686988   -0.341132
H      4.768315   -0.850196   -1.944257
H      4.059498   -2.487323   -1.781442
H     -2.690360   -1.479256   -1.131447
H     -3.569010   -2.682988   -0.158173
H      2.261414   -1.612507   -0.447954
H      2.586143   -0.333934   -1.714424
H     -1.696617   -1.883190    1.102840
H     -3.232076   -1.439133    1.911872
H      4.181184    0.767197   -0.137972
H      3.810417   -0.446818    1.095666
H     -1.721567    2.742026    0.743856
H     -0.981283    2.573543   -0.855366
H      0.529210    3.491620    0.721431
H      0.888404    1.220321    2.221598
