27

C      5.316593   -0.402088    0.127358
C     -4.150846   -0.214928    0.725343
C     -1.524063   -1.155122    0.014019
C      3.864342   -0.490346   -0.252624
C     -3.101177    0.687334    0.173235
C      2.967938    0.351731    0.189863
C     -0.735082    1.231205    0.069718
C     -1.687017    0.215755    0.570868
C      1.538084    0.247921   -0.197036
O      1.167471   -0.661810   -0.964013
O      0.600215    1.107893    0.250049
H      5.861687   -1.182275   -0.431884
H      5.388567   -0.532528    1.224773
H      5.737871    0.579340   -0.170389
H     -4.972089    0.444879    1.129388
H     -3.799860   -0.911011    1.487215
H     -4.612891   -0.766154   -0.131827
H     -1.434080   -1.145484   -1.091392
H     -2.472998   -1.755364    0.187930
H     -0.749250   -1.778596    0.479857
H      3.513767   -1.277265   -0.922506
H     -3.200620    1.735995    0.510421
H     -3.083792    0.676385   -0.949060
H      3.232961    1.147885    0.848247
H     -1.012655    1.441078   -1.033647
H     -1.010185    2.257246    0.512228
H     -1.642891    0.148326    1.689707
