43

C     -5.683237   -0.163529    1.267482
C     -0.760096    1.959501    1.536615
C     -6.003406   -0.372937   -0.174001
C     -5.192430    0.480982   -1.059891
C     -3.733975    0.340919   -1.081273
C      7.490225   -0.880474   -1.448313
C     -2.956588    0.562424    0.155734
C      6.977735   -1.706665   -0.486690
C      6.687811    0.106188   -1.951621
C     -1.474004    0.363317   -0.245827
C      5.672548   -1.559961   -0.020677
C      5.389817    0.251496   -1.487656
C      3.487862   -0.335535   -0.102983
C      2.846526   -1.038855    0.809235
C     -0.602667    0.571731    0.963471
C      4.857512   -0.570132   -0.521015
C      1.461034   -0.754661    1.190797
O      0.916759   -1.467947    2.067517
O      0.717345    0.255298    0.640164
H     -5.162221    0.791433    1.467479
H     -6.634041   -0.072493    1.892154
H     -5.154612   -1.010010    1.744332
H     -1.174595    2.666774    0.788103
H     -1.380626    1.963643    2.470699
H      0.239417    2.347473    1.820715
H     -7.080281   -0.047386   -0.308768
H     -6.028642   -1.447216   -0.463208
H     -5.576330    0.324543   -2.114501
H     -5.486832    1.553224   -0.829765
H     -3.423283   -0.645282   -1.505011
H     -3.334668    1.082634   -1.842382
H      8.503713   -0.966420   -1.834816
H     -3.045441    1.575424    0.580385
H     -3.094793   -0.202514    0.950384
H      7.634682   -2.482827   -0.102491
H      7.083781    0.772697   -2.719428
H     -1.176799    1.095057   -1.009115
H     -1.313295   -0.670198   -0.607712
H      5.305250   -2.216891    0.725607
H      4.816162    1.065448   -1.943116
H      2.932883    0.467817   -0.557671
H      3.391056   -1.845585    1.271668
H     -0.939257   -0.140509    1.744518
