47

C      7.109532    2.503756   -0.360937
C      0.580034   -3.192497   -0.206033
C     -0.732909   -2.399731   -0.169208
C      1.617935   -2.177755   -0.700004
C     -5.032083   -0.549518    0.294758
C     -4.366383    1.368113   -0.891589
C     -2.742370   -0.528889   -0.732933
C      2.562479    0.905984   -0.743158
C      4.135832   -0.268398    0.556093
C     -6.240070    0.077689    0.540186
C     -5.556058    1.995733   -0.654476
C     -1.724308   -0.229830    0.320151
C      3.540251    1.847740   -1.065378
C      5.110329    0.665973    0.237849
C     -4.063346    0.102352   -0.438403
C      2.846866   -0.167230    0.073504
C     -6.540931    1.339810    0.087658
C      4.823952    1.738350   -0.578865
C     -0.411486   -0.920960   -0.090611
C      1.791258   -1.176226    0.417456
O     -7.745263    1.987858    0.321850
O      5.815740    2.672005   -0.891095
O      0.606085   -0.603345    0.761721
H      7.744532    3.311823   -0.822299
H      7.104884    2.696619    0.743074
H      7.552995    1.532467   -0.593133
H      0.885723   -3.533614    0.791125
H      0.556851   -3.990220   -0.951492
H     -1.400578   -2.754313    0.615666
H     -1.208811   -2.608106   -1.148265
H      1.335740   -1.693617   -1.634974
H      2.593789   -2.697612   -0.841267
H     -4.856577   -1.558190    0.685121
H     -3.583334    1.875034   -1.474842
H     -2.937035   -1.624366   -0.750930
H     -2.393223   -0.130247   -1.706607
H      1.562382    1.016508   -1.138672
H      4.371884   -1.103955    1.196597
H     -7.010352   -0.423580    1.115374
H     -5.704730    2.986622   -1.048636
H     -1.564325    0.830903    0.506618
H     -1.988888   -0.694201    1.297266
H      3.311270    2.685049   -1.705166
H      6.128449    0.598436    0.610662
H     -0.246577   -0.549206   -1.135329
H      2.156151   -1.725461    1.332076
H     -7.795304    2.562242    1.176534
