21

C      2.984306   -0.018817    0.129085
C      2.443427    0.862248   -0.768494
C      2.145356   -0.801120    0.892964
C      1.070175    0.972637   -0.913695
C      0.770337   -0.682296    0.739258
C     -1.884030    0.728077    0.981518
C      0.231899    0.206272   -0.165790
C     -1.232349    0.332375   -0.329168
C     -1.809581   -0.953523   -0.817350
Cl    -1.265428    2.276002    1.560981
O     -1.046072   -1.917996   -1.017228
O     -3.150616   -1.125559   -1.058307
H      4.069956   -0.131706    0.269575
H      3.081545    1.482184   -1.374524
H      2.545716   -1.500632    1.604846
H      0.683429    1.691296   -1.644444
H      0.129712   -1.310234    1.353240
H     -2.976520    0.833963    0.844953
H     -1.722751   -0.021993    1.758689
H     -1.434436    1.097081   -1.101703
H     -3.634073   -2.018259   -0.935020
