41

C     -3.352282    3.198041    1.146264
C     -2.026952    3.201481    1.560561
C     -3.929282    2.131600    0.514557
C      5.052387    0.831356   -1.152802
C      3.860016    1.125429   -1.778828
C     -2.884508   -3.286511   -0.849570
C     -3.088715   -2.970365   -2.175737
C     -1.272061    2.047277    1.306489
C     -3.134024    1.006497    0.285534
C      5.100884    0.184062    0.050278
C      2.728158    0.745664   -1.151424
C     -2.215753   -2.405913   -0.027103
C     -2.608232   -1.764130   -2.638893
C     -1.824629    0.963111    0.675029
C      3.902649   -0.209667    0.699380
C      2.739322    0.081648    0.080662
C     -1.727217   -1.195044   -0.469134
C     -1.939195   -0.891232   -1.801210
C     -0.998458   -0.232315    0.424678
C      4.035138   -0.896058    1.976080
C      1.443537   -0.265215    0.645275
Cl    -1.329547    0.639684   -2.393040
O      5.223313   -1.100750    2.440720
O      3.037455   -1.361395    2.761490
O      1.191225   -0.842495    1.710891
O      0.267026    0.080115   -0.080103
H     -3.965617    4.082417    1.330506
H     -1.570847    4.035742    2.056075
H     -4.964612    2.198434    0.219673
H      5.995754    1.115546   -1.615173
H      3.893150    1.646030   -2.741873
H     -3.266616   -4.234743   -0.500939
H     -3.616875   -3.651427   -2.852363
H     -0.245856    2.061661    1.632284
H     -3.602805    0.181953   -0.209862
H      6.017933   -0.055708    0.556920
H      1.779524    0.977562   -1.645917
H     -2.047803   -2.645615    1.026416
H     -2.775149   -1.520294   -3.696414
H     -0.926100   -0.758089    1.420546
H      3.045661   -2.248345    3.260078
