33

C     -0.767014   -1.777913   -1.276132
C      2.920292    1.095921   -0.642833
C      3.897382   -0.916835    0.331829
C      2.777467    0.705866    1.778201
C     -4.600416    1.135240    0.186280
C     -3.611483    1.493464   -0.732812
C     -4.356836    0.080754    1.041147
C     -2.410001    0.819122   -0.799577
C     -3.142373   -0.591819    0.965093
C     -0.907753   -1.003421    0.043665
C     -2.170223   -0.237241    0.059294
C      0.277177   -0.124066    0.240950
C      2.727115    0.046158    0.430511
O      0.203450    1.115479    0.400145
O      1.541846   -0.690459    0.252128
H     -1.751332   -2.149951   -1.611518
H     -0.310080   -1.145950   -2.060132
H     -0.107359   -2.670752   -1.138011
H      2.153581    1.867920   -0.649023
H      3.013308    0.644913   -1.651721
H      3.901683    1.583391   -0.438832
H      4.285381   -1.200025    1.318446
H      3.569192   -1.872431   -0.169387
H      4.708556   -0.509139   -0.321753
H      2.697923    1.812811    1.721530
H      1.902794    0.351108    2.369587
H      3.686463    0.421904    2.351146
H     -5.538987    1.655327    0.244758
H     -3.822294    2.324025   -1.395032
H     -5.127330   -0.182911    1.742628
H     -1.648040    1.122227   -1.533379
H     -3.020421   -1.416295    1.673690
H     -0.971667   -1.786420    0.822291
