24

C     -3.001143   -0.343516    0.017336
C     -2.153519    0.857500    0.306895
C     -0.767062    0.776716   -0.213243
C      0.111004   -0.269242    0.357489
C     -0.311552   -1.670187    0.213496
C      2.379876    0.483547    0.194394
C      3.697904    0.571381   -0.502580
F      4.654597    0.035339    0.330621
F      3.673485   -0.238577   -1.638398
F      3.965698    1.868446   -0.818307
N      1.430655   -0.176790   -0.333394
O      0.095984   -2.339964   -0.796327
O     -1.139286   -2.331601    1.129431
O      2.228659    1.129610    1.405715
H     -3.303592   -0.832202    0.946238
H     -3.941444    0.044346   -0.507868
H     -2.487590   -0.982596   -0.704473
H     -2.643380    1.788835   -0.087227
H     -2.130487    1.011406    1.432835
H     -0.267384    1.777669   -0.118776
H     -0.773351    0.624778   -1.344973
H      0.291995   -0.074823    1.450429
H     -0.976960   -3.330710    1.267165
H      1.366895    1.620637    1.617615
