30

C     -2.865717    0.011204    2.534340
C     -1.536227   -1.249496   -1.923218
C     -2.077563    0.559894    1.361488
C     -2.110328   -0.464361    0.274706
C      0.638185    1.323067   -1.107236
C      0.862353   -0.886034   -0.217099
C      1.990825    1.507001   -0.909275
C      2.215137   -0.666069   -0.032903
C     -1.373828   -0.081555   -0.968730
C      0.077209    0.112672   -0.755188
C      2.805335    0.531793   -0.374353
C      4.241164    0.749513   -0.172823
O      4.995529   -0.283379    0.372224
O      4.812471    1.812788   -0.466486
H     -3.847617    0.554018    2.640036
H     -3.164308   -1.058513    2.370425
H     -2.305389    0.038937    3.479765
H     -0.800907   -1.230556   -2.745495
H     -1.444658   -2.178379   -1.300483
H     -2.585639   -1.234774   -2.283987
H     -1.049434    0.762618    1.709679
H     -2.525807    1.524352    1.092651
H     -3.157969   -0.680564   -0.004760
H     -1.692753   -1.406605    0.683190
H      0.033800    2.133152   -1.537259
H      0.435693   -1.857048    0.069960
H      2.435637    2.472014   -1.190440
H      2.841754   -1.450198    0.391587
H     -1.847342    0.816878   -1.406561
H      6.000393   -0.182368    0.416245
