33

C     -3.022211    0.702778    1.176444
C     -3.883680    0.263278   -1.141553
C     -2.349972   -1.884668    0.018125
C      4.138706    0.730065    1.845829
C      2.913007    0.558590    2.399419
C      4.286409    0.608923    0.487738
C      1.839734    0.267017    1.596291
C     -2.646057    0.541926   -0.276807
C     -1.686124   -0.626711   -0.458243
C      3.174986    0.306583   -0.347615
C      1.944626    0.133184    0.196523
C      3.454001    0.204306   -1.760799
C      0.747913   -0.172391   -0.520874
O      4.675937    0.394651   -2.135999
O      2.532822   -0.077108   -2.734243
O      0.608693   -0.331872   -1.732341
O     -0.485389   -0.330069    0.170937
H     -3.947811    0.170194    1.411981
H     -3.148426    1.775978    1.443392
H     -2.217044    0.324240    1.856414
H     -3.504332    0.133718   -2.180614
H     -4.572283    1.112814   -1.143561
H     -4.381637   -0.653858   -0.808933
H     -3.061704   -2.208878   -0.769782
H     -1.559319   -2.679195    0.051510
H     -2.869602   -1.790630    0.977446
H      5.018875    0.964881    2.465320
H      2.798927    0.653980    3.464972
H      5.274203    0.747762    0.047454
H      0.867800    0.135627    2.077032
H     -2.146642    1.473671   -0.609954
H     -1.566682   -0.727168   -1.578187
H      2.772274   -0.721619   -3.487321
