37

C      1.181721    0.922311   -1.965802
C      5.783764    0.323399   -0.333812
C      5.169145   -0.088939   -1.502437
C      5.051088    0.362403    0.832891
C     -5.308231   -1.438845    0.014027
C     -4.269645   -1.827060   -0.789139
C      3.849998   -0.451629   -1.490615
C      3.716219   -0.004166    0.847000
C     -5.097267   -0.437726    0.927754
C     -3.081229   -1.205779   -0.645771
C      1.713307   -0.801291   -0.324411
C      0.791484    0.395061   -0.603615
C      3.130691   -0.409020   -0.324376
C     -3.852015    0.201691    1.066476
C     -2.822797   -0.172036    0.281440
C     -3.790000    1.237325    2.077406
C     -1.490106    0.407663    0.323774
O     -2.790449    1.921107    2.365894
O     -4.934736    1.546569    2.839021
O     -1.062092    1.310340    1.050176
O     -0.517544   -0.093263   -0.564555
H      1.205659    0.146276   -2.745106
H      0.530136    1.787730   -2.253169
H      2.203719    1.343902   -1.872841
H      6.839656    0.609343   -0.364322
H      5.722611   -0.126303   -2.421877
H      5.560993    0.692928    1.746605
H     -6.282673   -1.927420   -0.082759
H     -4.451533   -2.613748   -1.500662
H      3.402113   -0.772538   -2.440687
H      3.159113    0.038208    1.795484
H     -5.954764   -0.168794    1.539440
H     -2.265498   -1.525423   -1.291262
H      1.480929   -1.221733    0.697045
H      1.487370   -1.628523   -1.026811
H      0.972237    1.201904    0.126683
H     -4.981372    2.466078    3.299114
