25

C     -3.455145    0.774246   -0.710879
C     -2.805786   -0.257095   -1.328761
C     -2.857130    1.599186    0.211450
C     -1.464643   -0.461280   -0.986806
C     -1.527482    1.359628    0.519618
C      1.539302   -1.982544   -0.011768
C     -0.828488    0.339227   -0.070529
C      2.949355   -1.537868   -0.103797
C      0.591229    0.126509    0.319014
C      1.038112    1.107695    1.321968
O      3.295476   -0.480476    0.465971
O      3.914097   -2.246671   -0.799606
O      1.378169    0.752841    2.494279
O      1.104580    2.448418    1.016615
O      0.725967   -1.172935    0.720814
H     -4.508329    0.957382   -0.960478
H     -3.298239   -0.885365   -2.045162
H     -3.389351    2.419088    0.696490
H     -0.960465   -1.284334   -1.488180
H     -1.088717    2.026730    1.260596
H      1.522367   -2.999161    0.499314
H      1.123536   -2.208148   -1.019480
H      1.208450    0.267901   -0.602158
H      4.776635   -1.819141   -1.145184
H      1.016499    3.156166    1.746661
