33

C     -3.967976   -0.313652    0.903237
C     -2.086341   -1.842245    0.784184
C     -2.189774    1.881351   -0.052153
C      4.652063   -0.257549   -1.138071
C      3.891320   -0.645099   -2.189668
C      4.061171    0.217614   -0.008148
C      2.524813   -0.549752   -2.093489
C     -2.458727   -0.383732    0.980040
C     -1.805211    0.416976   -0.122083
C      2.635977    0.313360    0.082882
C      1.865060   -0.064355   -0.945104
C      2.113526    0.826462    1.315101
C      0.446574   -0.029117   -1.005159
O      2.961370    1.160426    2.241467
O      0.822695    1.019077    1.663073
O     -0.183082   -0.424165   -2.061739
O     -0.398747    0.389889   -0.042835
H     -4.323974   -0.557905   -0.134445
H     -4.401840   -1.085358    1.559568
H     -4.361698    0.675645    1.202050
H     -1.205898   -1.932259    0.117715
H     -2.907526   -2.419653    0.298635
H     -1.804948   -2.325429    1.741266
H     -1.670760    2.303654    0.837245
H     -1.726111    2.369939   -0.939979
H     -3.279778    2.028805   -0.018386
H      5.745035   -0.333562   -1.214361
H      4.356615   -1.030054   -3.106490
H      4.665997    0.521189    0.816517
H      1.931581   -0.861643   -2.937801
H     -2.168153   -0.048909    1.979908
H     -2.149825    0.039485   -1.104792
H      0.416571    0.940566    2.591814
