37

C      1.053624   -1.567960    1.216604
C      5.750348   -0.138256    0.126903
C      5.063885   -1.328858   -0.115980
C      5.033414    1.038717    0.061333
C     -5.540342    1.423130   -0.381285
C     -4.829167    2.330319    0.371164
C      3.719353   -1.337854   -0.411181
C      3.684899    1.042549   -0.233741
C     -4.937893    0.310167   -0.864124
C     -3.513376    2.096593    0.624754
C      1.588775   -0.177745   -0.787498
C      0.725098   -0.295650    0.460715
C      3.026036   -0.145135   -0.470349
C     -3.576912    0.023755   -0.628390
C     -2.885591    0.940722    0.123908
C     -3.036180   -1.200479   -1.193736
C     -1.481186    0.754838    0.431103
O     -1.881800   -1.623265   -1.096612
O     -3.897912   -2.025032   -1.944869
O     -0.938220    1.675224    1.142297
O     -0.625459   -0.241089    0.091216
H      0.514293   -1.516134    2.183453
H      0.753195   -2.420433    0.585398
H      2.117113   -1.663987    1.434901
H      6.792306   -0.210050    0.349552
H      5.582380   -2.276815   -0.076077
H      5.554103    1.962904    0.247207
H     -6.596503    1.626467   -0.575489
H     -5.308098    3.228551    0.763039
H      3.244533   -2.287506   -0.589114
H      3.130709    1.990594   -0.281453
H     -5.498075   -0.403549   -1.456301
H     -2.906475    2.795121    1.221832
H      1.352776   -1.032314   -1.443148
H      1.318095    0.742966   -1.315951
H      0.944195    0.609932    1.066576
H     -3.495941   -2.700437   -2.561633
