33

C     -0.178426    2.434004    2.144674
C      3.977819    0.112306    0.162517
C     -0.285931    1.639135   -0.754520
C     -0.981093    1.271504    1.618657
C      3.000810   -0.970884   -0.233832
C     -2.935675   -2.578198   -0.816287
C     -2.962950   -1.377141   -1.480234
C     -2.068128   -2.724540    0.251447
C     -2.145761   -0.357203   -1.084477
C     -1.244425   -1.681737    0.642592
C     -1.264986   -0.474922   -0.016721
C      0.997874    0.143465    0.639481
C     -0.390794    0.647667    0.390093
O      1.577623    0.244516    1.735902
O      1.685175   -0.470573   -0.398002
H     -0.895477    3.048009    2.763322
H      0.193030    3.070562    1.341246
H      0.578046    2.048132    2.836715
H      4.953482   -0.136103   -0.321397
H      4.146322    0.083580    1.264593
H      3.669656    1.108998   -0.186293
H     -0.087193    1.055190   -1.677890
H     -1.189520    2.249610   -0.869128
H      0.610889    2.265204   -0.572652
H     -1.095376    0.519284    2.396069
H     -1.985072    1.654068    1.343633
H      3.047421   -1.809802    0.493176
H      3.297013   -1.399859   -1.216147
H     -3.585788   -3.414097   -1.118197
H     -3.632449   -1.257650   -2.307693
H     -2.063946   -3.685993    0.762775
H     -2.155028    0.594691   -1.596534
H     -0.587140   -1.851223    1.482431
