37

C     -1.532637   -0.715625    2.165282
C     -2.657570    0.336311   -1.314078
C     -2.634091   -1.866169   -0.192778
C     -3.947074    0.043013    0.753384
C      3.058713   -1.228563   -1.992769
C      4.237849   -0.568230   -1.845657
C      1.990262   -0.850478   -1.243582
C      4.323338    0.456216   -0.952367
C     -1.489104    0.010705    0.856216
C      2.022656    0.197808   -0.308508
C      3.213741    0.852643   -0.170897
C      0.790143    0.471671    0.407443
C      3.381176    1.944207    0.753387
C     -2.682648   -0.379833    0.000424
N     -0.273628   -0.265844    0.144533
O      0.631147    1.446741    1.349923
O      2.533325    2.412881    1.504641
O      4.650813    2.555501    0.817856
H     -1.906212   -0.093728    2.998484
H     -0.479536   -1.013794    2.426805
H     -2.096269   -1.669269    2.116262
H     -3.269711   -0.255008   -2.038458
H     -1.640663    0.424954   -1.743871
H     -3.139466    1.341002   -1.236276
H     -1.678065   -2.304782    0.160554
H     -3.505434   -2.323779    0.335357
H     -2.749467   -2.082830   -1.275014
H     -3.975118   -0.345999    1.772006
H     -4.816381   -0.312754    0.149509
H     -3.984257    1.146108    0.760680
H      2.984822   -2.046492   -2.703823
H      5.117257   -0.835395   -2.422505
H      1.060108   -1.378225   -1.365784
H      5.230716    1.006997   -0.800618
H     -1.571429    1.115730    1.043221
H      0.084568    1.308982    2.211754
H      4.718126    3.465326    1.249501
