38

C     -1.545993   -0.016084    2.430646
C     -0.850384    2.172786   -0.598804
C     -1.411506    1.249126    1.656968
C     -3.939127   -1.622928   -1.604617
C      5.251449   -0.597598   -0.245950
C     -4.229328   -0.924643   -0.464552
C     -2.682342   -1.496650   -2.149966
C      4.728568   -0.110196   -1.404324
C      4.490922   -0.629322    0.917137
C     -3.270948   -0.107327    0.124770
C     -1.735159   -0.676200   -1.549852
C      3.428429    0.351174   -1.398601
C      3.201543   -0.163862    0.892409
C     -2.008150    0.031264   -0.406868
C      2.647171    0.334295   -0.264223
C      0.333027    0.267762    0.316601
C     -1.001065    0.903184    0.230939
N      1.333996    0.797409   -0.247233
O      0.527907   -0.918259    1.011387
H     -1.666747   -0.919207    1.799446
H     -0.627551   -0.223085    3.054984
H     -2.381833   -0.000027    3.166975
H     -0.769342    1.824775   -1.659175
H     -1.728908    2.830044   -0.495985
H      0.098652    2.656045   -0.346910
H     -0.557048    1.834573    2.082201
H     -2.287229    1.910101    1.692297
H     -4.682278   -2.276111   -2.088664
H      6.283439   -0.973298   -0.214020
H     -5.226024   -1.034320   -0.045361
H     -2.460622   -2.047685   -3.045428
H      5.318322   -0.088439   -2.295299
H      4.908297   -1.017568    1.838690
H     -3.586348    0.409187    1.025877
H     -0.754092   -0.597016   -2.002586
H      3.053876    0.733393   -2.355555
H      2.646295   -0.213130    1.842006
H      1.150128   -1.652165    0.637722
