29

C      0.089991   -2.235241    0.391312
C      3.718075    1.072872   -0.449456
C      3.148520    0.079680   -1.208886
C      3.058083    1.454246    0.698839
C      1.960689   -0.511588   -0.833979
C      1.870301    0.857764    1.066809
C     -3.401218    1.242224   -0.805885
C     -3.353947   -0.118673   -0.819052
C     -1.243854    1.281593    0.222352
C     -0.006746   -0.763745    0.747028
C      1.281766   -0.143887    0.314555
C     -2.350760    1.964078   -0.286761
C     -1.175644   -0.086230    0.218839
C     -2.236581   -0.779194   -0.304298
Cl    -2.475374    3.705645   -0.301402
O     -2.263147   -2.144852   -0.351643
H     -0.539032   -2.876831    1.030797
H      0.015250   -2.437097   -0.679477
H      1.150312   -2.526109    0.668751
H      4.664071    1.540440   -0.752303
H      3.656661   -0.224653   -2.106471
H      3.517330    2.243706    1.296276
H      1.517224   -1.294830   -1.439537
H      1.405600    1.215838    1.992426
H     -4.290361    1.724039   -1.216837
H     -4.174008   -0.673150   -1.223572
H     -0.452628    1.867776    0.614327
H     -0.067930   -0.742541    1.877116
H     -3.022643   -2.691280   -0.726699
