23

C      1.440029   -0.556779    1.302500
C     -2.050981    0.414628    0.336936
C     -1.512940   -0.975661    0.703116
C     -1.111477    0.789947   -0.787620
C     -0.406200   -1.167923   -0.290414
C      0.232069    1.081028   -0.172302
C      1.182938    1.699387   -1.125925
C      1.745107   -0.487186   -1.133986
C      0.803603   -0.311004   -0.008059
O      1.443837    2.927429   -1.273771
O      2.395112   -1.524871   -1.364723
O     -0.933078   -0.468314   -1.406554
O      1.766928    0.684412   -1.861642
H      2.343760   -1.225681    1.188660
H      0.816678   -1.010682    2.073015
H      1.876999    0.413242    1.681894
H     -3.066434    0.368063   -0.071800
H     -1.958520    1.084724    1.198905
H     -2.314538   -1.692033    0.450929
H     -1.197496   -1.016962    1.751612
H     -1.486366    1.548083   -1.456943
H     -0.173937   -2.202125   -0.522123
H      0.164906    1.628279    0.788296
