31

C     -1.599717   -1.153938   -1.554016
C     -2.264519    1.533502    1.011225
C      4.367939   -0.624366    0.007575
C      4.000392   -0.020414    1.203405
C      3.390828   -0.978888   -0.883080
C      2.655786    0.203121    1.454815
C      2.063428   -0.752936   -0.623929
C      1.675780   -0.155617    0.554940
C      0.244456    0.091283    0.841542
C     -2.908124   -0.898517    0.498655
C     -1.957851    1.593704   -1.410447
C     -1.648277   -0.541300   -0.177535
C     -1.513237    0.949005   -0.185606
O     -3.996347   -0.578223   -0.016333
O     -2.880215   -1.580784    1.689924
O     -1.137124    2.231094   -2.105458
O     -3.266008    1.531520   -1.845397
O     -0.569112   -0.981504    0.547312
O     -0.168249    1.150829    0.038831
H     -0.907120   -2.029409   -1.574320
H     -1.290556   -0.449552   -2.340962
H     -2.603261   -1.553441   -1.808610
H     -3.273427    1.854061    0.643346
H     -1.713094    2.397616    1.439668
H     -2.351180    0.737512    1.797182
H      5.436832   -0.801076   -0.190236
H      4.794327    0.244159    1.878290
H      3.664801   -1.445174   -1.807897
H      2.376032    0.668924    2.377722
H      1.291027   -1.045029   -1.352599
H      0.085788    0.403835    1.891994
