62

C     -6.761848    0.696516    0.693463
C      0.705975    0.355039   -1.915636
C      0.683113   -0.941133   -2.211139
C      7.235764    0.449732    1.211801
C      6.940293    0.810445   -0.071002
C     -4.480386    0.832036   -0.350552
C     -6.240666   -0.149598   -1.592181
C      0.060701   -0.074687    2.786048
C     -1.607613    0.522642    0.866441
C     -5.802538    0.457443   -0.436512
C     -0.270383    0.278976    1.515141
C     -3.593507    0.617012   -1.381245
C      0.120663    0.834605   -0.675228
C      6.243740    0.160790    2.166346
C      5.615200    0.889048   -0.425535
C      0.041563   -1.841738   -1.236337
C     -5.379836   -0.378938   -2.640882
C      1.394742   -0.197667    3.221238
C      0.756063    0.529413    0.597930
C     -4.061735    0.008633   -2.522264
C      4.905457    0.241753    1.802845
C      4.619721    0.605286    0.510569
C      2.396159    0.058326    2.300275
C      2.081284    0.419832    0.999060
C      3.809573   -0.037510    2.721548
C      3.201745    0.692638    0.115241
C     -1.253563   -1.284443   -0.697998
C     -2.173235    0.917914   -1.523370
C     -2.931271   -0.088958   -3.428236
C     -1.291828    0.198351   -0.549376
O      6.603115   -0.192216    3.425858
O      5.253817    1.250734   -1.715697
O      0.894119   -2.289053   -0.236112
O     -5.883064   -0.999293   -3.788829
O      1.623178   -0.558111    4.510781
O      4.093439   -0.359711    3.873091
O      3.004771    1.028305   -1.057481
O     -1.500342   -1.938091    0.509622
O     -3.030478   -0.607270   -4.579788
O     -1.838341    0.456391   -2.809445
H     -7.725669    1.026038    0.223546
H     -6.982266   -0.251989    1.222964
H     -6.389738    1.474785    1.373199
H      1.144918    0.987122   -2.698274
H      1.113655   -1.327819   -3.122827
H      8.266237    0.372492    1.543977
H      7.729100    1.027120   -0.784089
H     -4.178649    1.310975    0.586431
H     -7.297122   -0.444862   -1.651339
H     -0.708509   -0.278541    3.523952
H     -1.839663    1.606604    0.975936
H     -2.380754   -0.123661    1.309159
H     -0.055244    1.929701   -0.763587
H     -0.236108   -2.782790   -1.805286
H     -2.087527   -1.633142   -1.379079
H     -1.962837    2.025073   -1.481383
H      6.167330   -0.432609    4.242901
H      5.927854    1.465561   -2.429073
H      0.820498   -3.254778   -0.053208
H     -5.293715   -1.191635   -4.589316
H      2.417170   -0.700469    5.013885
H     -0.632522   -2.176618    0.917591
