42

C      0.587721   -1.928321    0.891903
C      7.113972    0.445705   -0.124018
C      6.266783    1.238409   -0.831575
C      6.710891   -0.359117    0.921658
C      4.914353    1.227162   -0.468005
C      5.370871   -0.337015    1.243010
C     -3.975798    1.144717    0.679591
C     -3.856088   -0.681255   -0.822815
C     -5.989425    0.055826   -0.021363
C      0.351450   -0.365250   -0.956352
C      3.018539    0.471629    0.906816
C      1.021066   -0.577969    0.385117
C      4.463134    0.439613    0.569940
C     -3.219358    0.292537   -0.087098
C     -5.363944    1.026608    0.712949
C     -5.248584   -0.803616   -0.792520
C     -1.781074    0.427318   -0.111521
N     -6.070489    1.945974    1.529830
N     -5.849257   -1.824970   -1.570476
O     -1.225883    1.314810    0.561412
O     -5.442643    2.917883    2.264825
O     -7.311060    1.859343    1.575104
O     -5.096593   -2.671902   -2.332436
O     -7.086663   -1.933159   -1.543222
O      2.385621   -0.493484    0.170449
O     -1.032728   -0.428745   -0.880682
H      0.821512   -2.020124    1.982372
H      0.967060   -2.763430    0.302196
H     -0.526313   -1.953866    0.824472
H      8.164631    0.449589   -0.400775
H      6.582568    1.869297   -1.651213
H      7.436732   -0.967327    1.444899
H      4.255530    1.854961   -1.031510
H      5.016493   -0.952545    2.054705
H     -3.495241    1.908087    1.258065
H     -3.255136   -1.343281   -1.419665
H     -7.070065   -0.036278    0.004477
H      0.685490   -1.117050   -1.702026
H      0.619196    0.622189   -1.396820
H      2.602015    1.465227    0.586079
H      2.833899    0.412277    1.992767
H      0.706813    0.169545    1.127006
