42

C     -4.355610   -1.700438   -1.087110
C      0.127738    0.149483    3.303135
C     -2.933973   -2.146715   -1.155600
C     -1.222307    0.766236    3.094208
C     -1.958776   -0.973558   -0.987032
C      4.741053    0.828799   -2.354187
C      3.806360    1.696001   -2.842221
C     -1.413712    1.517099    1.843773
C     -2.204876   -0.341479    0.354269
C      4.347263    0.001340   -1.337431
C      2.542567    1.728997   -2.332922
C     -1.259150    0.817494    0.549856
C      3.045421    0.022789   -0.801281
C      2.112445    0.895415   -1.292792
C      2.727595   -0.918788    0.222446
C      0.772093    1.081787   -0.827322
O      1.600793   -1.048825    0.714744
O      3.779063   -1.748680    0.694196
O      0.045441    1.925421   -1.486949
O      0.074148    0.540930    0.203391
H     -4.846325   -2.072357   -0.165142
H     -4.493122   -0.605332   -1.150488
H     -4.958445   -2.138072   -1.935561
H      0.431392    0.162099    4.390812
H      0.134528   -0.943992    3.039150
H      0.935408    0.656257    2.766136
H     -2.770944   -2.651285   -2.128840
H     -2.753219   -2.915187   -0.377050
H     -1.976341   -0.019369    3.299003
H     -1.356968    1.499002    3.946082
H     -0.948905   -1.403957   -1.087934
H     -2.117443   -0.242471   -1.780763
H      5.762438    0.785837   -2.747795
H      4.133205    2.352716   -3.656435
H     -2.395088    2.073944    1.891372
H     -0.658110    2.360979    1.851348
H     -3.230781    0.089185    0.300628
H     -2.202423   -1.051215    1.186097
H      5.103803   -0.682411   -0.961035
H      1.866924    2.439029   -2.770951
H     -1.611346    1.565203   -0.237298
H      3.578184   -2.351911    1.483331
