85

C     -0.030052   -4.638212   -1.337313
C      6.238731    2.027718    4.124334
C     -7.689428    2.823416    0.275619
C      6.639444    1.944898   -1.404908
C     -2.574715    4.820400   -0.193995
C      0.378169   -3.295378   -1.899141
C      2.362459   -0.988531    2.519937
C     -4.876213   -1.234726   -1.017907
C      2.197200   -2.312497    1.822772
C     -3.802622   -1.960036   -0.278717
C      1.257317   -0.257881   -0.511782
C     -0.945851    0.168513   -1.393223
C      4.371574    0.532253    2.613564
C     -5.674088    1.053949   -0.422817
C      4.514825    0.451779   -0.117723
C     -3.066849    2.000293   -0.676500
C     -1.742805   -2.546078   -1.126144
C     -0.263246   -2.233666   -0.976376
C      3.448523   -0.207160    1.861697
C     -4.638650    0.212354   -0.768005
C      0.153385   -0.871913   -1.315664
C      3.505293   -0.257717    0.501536
C     -3.339894    0.657788   -0.899465
C      2.484040   -1.054911   -0.266467
C     -2.335090   -0.340579   -1.280151
C      5.371845    1.234160    1.980814
C     -5.372348    2.394195   -0.204940
C      5.438813    1.190128    0.612461
C     -4.074387    2.879755   -0.328386
N      2.321943   -2.290807    0.423677
N     -2.474342   -1.490452   -0.447082
O      6.301169    1.978142    2.730843
O     -6.373167    3.256363    0.138488
O      6.439206    1.891179   -0.028009
O     -3.861013    4.230309   -0.093607
Cl     0.691725    0.000000    0.000000
Cl     0.683622    0.000000    0.000000
O     -0.000293    0.389743   -0.000000
O     -0.000125    0.391685   -0.000000
H     -0.218151   -4.592688   -0.238390
H     -0.931604   -5.035201   -1.881859
H      0.787992   -5.402758   -1.460395
H      7.224409    2.371903    4.505328
H      6.125893    0.973437    4.505656
H      5.405902    2.667136    4.425228
H     -7.746413    1.940051    0.961776
H     -8.126360    2.585355   -0.709827
H     -8.311693    3.610136    0.775515
H      6.346618    0.997978   -1.890226
H      6.089670    2.795226   -1.894331
H      7.720335    2.082222   -1.678615
H     -2.521267    5.764839    0.393087
H     -2.315584    4.968219   -1.243594
H     -1.789311    4.157709    0.260915
H     -0.156360   -3.146968   -2.866196
H      1.447395   -3.236110   -1.970087
H      1.447211   -0.410665    2.624398
H      2.718801   -1.177100    3.575728
H     -4.956307   -1.480099   -2.081713
H     -5.854204   -1.535641   -0.555956
H      1.245584   -2.819517    2.175682
H      2.995300   -3.001034    2.244993
H     -4.088878   -1.921525    0.814834
H     -3.930503   -3.054081   -0.530623
H      0.870445    0.243469    0.413272
H      1.601190    0.637907   -1.132342
H     -0.800646    0.923132   -0.589818
H     -0.806355    0.722069   -2.338268
H      4.299261    0.552770    3.694547
H     -6.692075    0.702292   -0.320011
H      4.536221    0.393764   -1.204171
H     -2.078247    2.417208   -0.765745
H     -1.984290   -2.501730   -2.198298
H     -1.911536   -3.528841   -0.663639
H      0.043663   -2.505630    0.048012
H      0.624316   -0.964163   -2.361297
H      2.992324   -1.287380   -1.241086
H     -2.620595   -0.693099   -2.321193
H      3.028671   -2.979638    0.101288
H     -0.691725    0.000000    0.000000
H     -0.683622    0.000000    0.000000
H      0.791171   -0.194771    0.000000
H     -0.790878   -0.194972   -0.000000
H      0.803351   -0.195798    0.000000
H     -0.803226   -0.195887   -0.000000
