20

C     -1.985697   -0.291514   -0.150299
C     -1.161125   -0.055999    1.081104
C      1.023191   -0.625309    0.041623
C      2.121353    0.146789   -0.531721
C      0.238060    0.378716    0.801399
C      1.631650    1.532711   -0.523140
O     -2.043418    0.808836   -0.983388
O     -1.147225   -1.194032    1.865469
O      0.860681   -1.853103   -0.123804
O      3.327779   -0.334301   -0.972282
O      2.292352    2.540662   -0.945306
O      0.354548    1.519368    0.016819
Na     0.000000    0.000000    0.000000
H     -1.708893   -1.210159   -0.699357
H     -3.042395   -0.466434    0.207256
H     -1.650903    0.743417    1.672288
H      0.755404    0.551922    1.755135
H     -2.052721    0.468559   -1.928759
H     -1.115414   -1.999861    1.305527
H      3.302774   -0.660268   -1.888564
