105

C     11.277197   -0.070592    1.739254
C    -10.749888   -1.847039   -1.397694
C     10.019290   -0.879245    1.941963
C     -9.322806   -1.330006   -1.242949
C     11.300384    0.497056    0.367353
C    -11.283682   -2.456973   -0.137473
C      8.750704   -0.079730    1.805464
C     -8.356891   -2.408104   -0.894193
C      5.482070   -1.769124    1.060991
C     -6.660625    0.550161   -0.492369
C      4.611068   -1.321674   -0.112085
C     -6.864591    1.353583   -1.735352
C      3.689783    0.310229    1.177957
C     -4.697361    1.748652   -2.688554
C      2.387231   -0.425022    1.263191
C     -3.680024    1.095701   -1.824482
C      1.241987    1.245103    0.242782
C     -2.257592    2.926824   -1.696819
C      0.231594    1.533098   -0.887660
C     -0.841546    3.435063   -1.742523
C     14.057616    1.131754   -2.200396
C    -13.038650   -0.629951    2.963844
C     14.734295    1.050730   -0.878720
C    -12.549385    0.383889    1.986788
C     12.510681    1.330789    0.038811
C    -11.285179   -1.463680    1.005357
C      7.551292   -0.940293    2.031051
C     -6.981698   -1.908557   -0.737205
C     13.745284    0.542311    0.145531
C    -12.119482   -0.259199    0.719091
C     15.049607   -1.157815   -0.561776
C    -14.188853    0.607013    0.460734
N      6.700220   -1.034918    1.115228
N     -6.490508   -0.810668   -0.599915
N     15.650522   -0.090965   -0.970115
N    -13.733521    1.121161    1.557297
N     13.695469   -0.845975   -0.162120
N    -13.366214   -0.493017    0.071038
O      7.415963   -1.597647    3.225977
O     -6.021470   -3.009063   -0.750734
O     15.550044   -2.472109   -0.479376
O    -15.317475    1.099267   -0.193257
O      4.333271    0.010292    0.003463
O     -5.948342    1.346836   -2.674287
O      1.509519   -0.111242    0.220658
O     -2.386637    1.608640   -1.956693
O     -0.021113    2.869455   -0.855755
S     12.396572    1.707414   -1.756273
S    -12.145782   -2.143683    2.455520
H     11.262859    0.786853    2.460213
H     12.132315   -0.723429    1.951413
H    -10.705307   -2.656214   -2.165303
H    -11.375286   -1.049600   -1.829696
H      9.938009   -1.708936    1.198113
H     10.016685   -1.410933    2.931626
H     -9.044167   -0.948428   -2.272631
H     -9.279840   -0.531464   -0.491173
H     11.238257   -0.379130   -0.347445
H     10.368218    1.073167    0.136698
H    -12.327070   -2.768976   -0.330957
H    -10.680813   -3.319103    0.138207
H      8.687475    0.401970    0.804756
H      8.776289    0.724797    2.580911
H     -8.349068   -3.155189   -1.726261
H     -8.703483   -2.950223    0.027572
H      4.929644   -1.792454    2.005543
H      5.771172   -2.838136    0.850396
H     -7.583056    0.808118    0.169238
H     -5.857602    0.980818    0.185910
H      3.720124   -1.973899   -0.173903
H      5.178537   -1.518084   -1.066036
H     -7.110695    2.432947   -1.406594
H     -7.862890    1.068559   -2.206351
H      4.349989    0.072737    2.053687
H      3.536671    1.427001    1.272173
H     -4.296461    1.677357   -3.764473
H     -4.596809    2.872619   -2.475711
H      1.884042   -0.062788    2.206057
H      2.497338   -1.504794    1.381186
H     -3.592597    0.011242   -2.093666
H     -3.910464    1.136111   -0.745383
H      0.883816    1.593710    1.211477
H      2.143750    1.842442   -0.070455
H     -2.753177    3.238230   -0.734716
H     -2.805080    3.519731   -2.492391
H     -0.691752    0.961150   -0.699247
H      0.672506    1.259818   -1.860814
H     -0.833849    4.556528   -1.547923
H     -0.479350    3.351432   -2.816425
H     13.991001    0.134906   -2.693643
H     14.527112    1.894437   -2.843337
H    -12.722852   -0.342107    4.001020
H    -14.132926   -0.766302    2.971092
H     15.300045    1.926921   -0.580848
H    -11.786983    1.073464    2.415837
H     12.517927    2.278942    0.621210
H    -10.289556   -1.129626    1.302287
H     14.211940    0.698015    1.140160
H    -11.514464    0.480490    0.152693
H     12.908283   -1.493354   -0.125893
H    -13.660946   -1.259330   -0.547318
H      6.599313   -2.121016    3.485916
H     -5.083773   -2.825345   -0.431115
H     16.440436   -2.660848   -0.966181
H    -16.035789    1.656469    0.257841
