86

C     -1.095972    1.195509    1.868714
C     -0.564795   -1.752359    1.479643
C      2.282423    1.366529   -0.635374
C      3.314481    0.475017   -0.500832
C     -1.158254   -1.453521   -0.870752
C     -2.221453   -0.654940   -1.577767
C     -0.089030    1.994294   -0.522264
C      1.788102   -1.193277    0.187872
C     -1.528203    0.416801    0.669959
C      0.978422    0.972294   -0.353429
C      3.104119   -0.820295   -0.089277
C      0.749542   -0.310532    0.056749
C     -1.465686    1.362823   -0.518388
C     -0.622422   -0.743685    0.358797
N     -1.731297    0.684884   -1.762113
O      4.166381   -1.693655    0.036058
C     -1.452990   -1.636257    1.425227
C     -1.125213   -1.675398   -1.273338
C      2.503821    0.376645    0.986047
C      3.335542    0.120103   -0.064911
C     -1.303057    0.805990   -1.400128
C     -1.654663    2.003423   -0.560456
C      0.243404    0.502124    2.005817
C      1.496988   -0.445188   -1.414437
C     -1.632658   -0.347330    0.700763
C      1.112309    0.221683    0.849850
C      2.856171   -0.295651   -1.286999
C      0.612463   -0.189731   -0.353412
C     -1.138347    0.839919    1.503517
C     -0.847511   -0.368647   -0.564954
N     -1.070098    2.023328    0.729186
O      3.690648   -0.562127   -2.370540
C     -0.546337   -0.213859   -0.685731
C      0.669304    0.447341   -0.098571
C     -1.718347    0.667685   -0.351582
C      1.921043   -0.255161   -0.382594
O     -0.730032   -1.443138   -0.058516
O      0.464445    0.624191    1.245643
O     -1.790954    1.837653   -0.799507
O     -2.746057    0.203345    0.461300
O      2.338489   -0.539920   -1.531927
O      2.711394   -0.638771    0.690724
H     -1.431251    0.767915    2.827539
H     -1.522312    2.234666    1.753872
H     -0.005908    1.295542    1.883067
H      0.382278   -1.655582    2.071439
H     -0.716080   -2.792610    1.117406
H     -1.400923   -1.544504    2.188258
H      2.489293    2.377467   -0.961974
H      4.341602    0.801534   -0.727669
H     -1.558658   -2.476252   -0.607906
H     -0.351683   -1.656115   -1.614107
H     -3.202187   -0.698540   -1.078567
H     -2.320897   -1.101323   -2.601899
H     -0.026675    2.740315    0.294695
H      0.057556    2.504099   -1.496218
H      1.661998   -2.220510    0.509139
H     -2.559755    0.015730    0.778413
H     -2.213960    2.159811   -0.330322
H     -2.245699    1.244772   -2.452614
H      4.716902   -1.842300    0.847615
H     -0.472299   -2.137764    1.191541
H     -2.284736   -2.323694    1.116712
H     -1.505564   -1.546181    2.520597
H     -0.345262   -2.419815   -1.091384
H     -2.117698   -2.070040   -0.956622
H     -1.204527   -1.509316   -2.379684
H      2.876266    0.707205    1.960053
H      4.398001    0.241104    0.047742
H     -0.525615    1.011475   -2.159214
H     -2.217811    0.494618   -1.948102
H     -1.314876    2.902618   -1.116445
H     -2.768979    2.089630   -0.445940
H      0.210765   -0.392359    2.663948
H      0.679848    1.355705    2.568285
H      1.056935   -0.768522   -2.347143
H     -2.685565   -0.182245    0.467127
H     -1.822184    0.984417    2.363597
H     -0.263059    2.630612    0.869401
H      4.679552   -0.440336   -2.235700
H     -0.522197   -0.329344   -1.769781
H      0.745801    1.464297   -0.559504
H     -1.698545   -1.562612    0.127438
H      0.848969   -0.139347    1.767251
H     -3.669117    0.616687    0.382645
H      3.722141   -0.739049    0.626324
