43

C      3.852039   -0.173856    1.127327
C      4.090951    1.304774   -0.884143
C     -1.766139   -2.025748    0.151955
C     -0.462873    1.093771   -2.344199
C      1.063148   -1.174847    1.286486
C     -3.092865    0.819908    0.333184
C     -0.311967   -1.245658    1.914275
C     -2.176753    1.519742   -0.645026
C      2.033384    0.101867   -0.553028
C      3.206598    0.337949   -0.083621
C      0.884262   -0.703201   -0.153850
C     -2.364225    0.070793    1.385981
C     -0.372935    0.088732    0.000241
C     -1.254127   -0.811657    0.868559
C     -1.149599    0.478069   -1.173987
O     -3.286284   -0.642590    2.144313
O     -1.982133   -0.531212   -1.697199
H      3.696952    0.522297    1.984660
H      3.691674   -1.232040    1.356419
H      4.997551   -0.135258    0.981040
H      3.493398    1.880467   -1.590612
H      4.843665    0.671476   -1.368755
H      4.602643    1.974900   -0.159955
H     -2.852894   -1.965837   -0.120031
H     -1.760070   -2.871713    0.910594
H     -1.120751   -2.402492   -0.653459
H      0.083046    0.410002   -2.995587
H      0.078422    2.022685   -2.072833
H     -1.307751    1.495633   -3.021694
H      1.552792   -2.145740    1.322866
H      1.593110   -0.404713    1.891121
H     -3.689536    1.619408    0.828857
H     -3.800807    0.218229   -0.249923
H     -0.515513   -2.308318    2.182818
H     -0.419052   -0.586116    2.806863
H     -2.765654    1.942179   -1.453804
H     -1.560862    2.261185   -0.097795
H      1.838218    0.647544   -1.537549
H      0.777373   -1.565938   -0.844390
H     -1.872610    0.821820    2.065721
H     -0.146150    0.973531    0.630368
H     -3.535220   -0.166005    2.988965
H     -2.812452   -0.184025   -2.064610
