86

C     -1.134880   -1.771688   -1.488842
C     -0.493304   -1.938619    1.441695
C      2.149102    0.999854   -1.344197
C      3.250839    0.769136   -0.566641
C     -1.223316    0.373048    1.639971
C     -1.980233    1.485652    1.025746
C     -0.230821    0.863346   -1.873219
C      1.843320   -0.354412    1.010487
C     -1.558030   -0.743576   -0.486778
C      0.884366    0.551604   -0.944386
C      3.093868    0.089701    0.613546
C      0.715506   -0.133017    0.241320
C     -1.561992    0.597655   -1.184321
C     -0.633087   -0.623582    0.690587
N     -1.860963    1.692010   -0.353487
O      4.230632   -0.129034    1.380810
C     -2.051007   -0.281274   -1.709035
C     -0.420181   -2.259967   -0.538215
C      1.839548    1.913143   -0.627932
C      3.033196    1.244219   -0.690012
C     -0.552311   -1.121682    1.649218
C     -0.794572    0.173061    2.373292
C     -0.597108    1.912145   -0.288582
C      1.924481   -0.831165   -0.208028
C     -1.780498   -0.265331   -0.243705
C      0.678232    1.182414   -0.350174
C      3.095778   -0.118686   -0.484353
C      0.718507   -0.164750   -0.143789
C     -1.695608    1.137393    0.333816
C     -0.491003   -0.933079    0.149063
N     -1.706177    1.052697    1.745667
O      4.297818   -0.790928   -0.547125
C     -0.557245   -0.355278    0.635222
C      0.540341   -0.592943   -0.406355
C     -1.679395    0.369733    0.006023
C      1.233922    0.675001   -0.661885
O     -1.065948   -1.623643    0.991770
O      1.472820   -1.442066    0.243431
O     -2.808646   -0.202544   -0.214105
O     -1.652849    1.690465   -0.400909
O      0.715074    1.603469   -1.309003
O      2.513639    0.874002   -0.177256
H     -1.980065   -1.907849   -2.201302
H     -0.940914   -2.768212   -1.052409
H     -0.259088   -1.499722   -2.085337
H      0.516448   -2.374586    1.331289
H     -0.672294   -1.810195    2.530029
H     -1.220422   -2.697939    1.097708
H      2.279150    1.539393   -2.279659
H      4.220040    1.135511   -0.914499
H     -0.375076    0.734774    2.293138
H     -1.893198   -0.178841    2.337881
H     -3.081252    1.418610    1.275687
H     -1.659895    2.436076    1.550411
H     -0.193739    1.976439   -2.058230
H     -0.145484    0.389218   -2.847803
H      1.789462   -0.883914    1.952625
H     -2.566781   -0.946052   -0.130124
H     -2.314248    0.523554   -2.006115
H     -1.441642    2.582133   -0.663151
H      4.447989    0.603527    2.067570
H     -2.449100    0.703649   -2.076965
H     -1.171846   -0.570620   -2.293131
H     -2.862082   -1.034038   -1.927047
H     -0.162960   -3.038135    0.179361
H     -1.381297   -2.512456   -1.067359
H      0.341625   -2.229858   -1.371321
H      1.779427    2.969167   -0.785650
H      3.935646    1.794268   -0.903050
H      0.437468   -1.506556    1.972788
H     -1.305752   -1.867393    1.910609
H      0.186423    0.689895    2.552969
H     -1.186955   -0.085362    3.383067
H     -0.943174    2.209327   -1.318417
H     -0.431997    2.847016    0.286256
H      2.031214   -1.896820   -0.055323
H     -2.600656   -0.779054    0.323120
H     -2.661053    1.630418    0.024417
H     -1.640175    1.987174    2.190820
H      4.586151   -1.158833   -1.445251
H     -0.175837    0.164920    1.529966
H      0.158277   -1.114793   -1.279117
H     -0.749299   -1.815760    1.907411
H      1.619389   -2.265782   -0.283593
H     -2.496803    2.248313   -0.341743
H      2.932559    1.786906   -0.239857
