21

C     -1.228357    1.020464   -0.350868
C     -0.510853   -0.082135    0.344556
C     -1.011338    2.292683    0.327659
C      0.960101    0.020375    0.465448
C     -0.955238   -1.428268   -0.136782
C      1.715523    0.103761   -0.776153
O      0.144574    2.785522    0.526843
O     -2.133650    3.013888    0.789074
O      1.367157   -1.160045    1.145130
O     -0.080242   -2.184907   -0.607955
O     -2.259268   -1.876387   -0.090398
O      1.595944    1.023373   -1.626862
O      2.643941   -0.877651   -1.084467
K      0.000000    0.000000    0.000000
H     -1.036604    1.060025   -1.445626
H     -2.321028    0.767966   -0.288872
H     -0.896071   -0.041188    1.414421
H      1.220715    0.869363    1.130792
H      1.922305   -1.739488    0.558031
H     -2.532242   -2.839706   -0.181161
H      3.394629   -0.727645   -1.777475
