74

C      7.401142   -0.751500    0.330566
C      3.416274   -2.082431    0.047105
C      0.291656   -0.794203    1.187648
C     -3.749566   -0.590376    1.468301
C      6.077455    1.289220    0.302452
C     -1.815735   -1.642758   -0.652309
C     -0.375364   -1.658844   -1.011614
C      4.891851    0.554186    0.944161
C     -2.277050    2.112575   -0.563242
C     -5.737628    1.088921    0.626099
C      0.709063    1.730889   -0.311235
C     -4.665012   -1.398370   -0.645819
C      5.699568   -0.384819   -1.466144
C      6.725415    0.262464   -0.602377
C      2.843275   -0.709887    0.221851
C     -1.623310    0.804251   -0.094836
C     -2.467775   -0.310108   -0.667414
C     -0.291251    0.723767   -0.718686
C     -4.494926    0.991604   -0.222614
C     -3.639867    2.189686    0.039772
C     -6.694197    0.011144    0.138071
C     -6.020492   -1.281010   -0.090207
C      1.971822    1.125993   -0.934863
C      1.774536   -0.372274   -0.786465
C      0.388443   -0.589225   -0.305448
C     -3.796605   -0.314376    0.007783
C      3.907967    0.313165   -0.160885
O     -3.556547    2.522773    1.393325
O     -7.723998   -0.077294    1.049238
O     -6.635629   -2.296499    0.203401
O      4.444272    0.117893   -1.387135
O      3.094726    1.469960   -0.233316
H      7.647985   -0.263154    1.299364
H      6.764270   -1.643885    0.451331
H      8.379333   -1.078195   -0.095500
H      3.517159   -2.378143   -1.004303
H      2.817641   -2.871226    0.548152
H      4.405177   -2.086261    0.594849
H      0.819216   -1.730481    1.421126
H     -0.774830   -0.957130    1.435307
H      0.630606    0.066924    1.775457
H     -3.115607   -1.418292    1.779398
H     -3.450759    0.293739    2.088455
H     -4.798155   -0.864181    1.787411
H      5.623011    2.052280   -0.358565
H      6.765216    1.690525    1.050759
H     -2.354116   -2.285115   -1.411696
H     -1.938134   -2.195538    0.306879
H     -0.295354   -1.451238   -2.111714
H      0.019806   -2.680084   -0.817932
H      5.215387   -0.353190    1.465186
H      4.486910    1.253020    1.718616
H     -1.680087    2.966443   -0.181497
H     -2.339713    2.124167   -1.668807
H     -5.542562    1.033073    1.702774
H     -6.250815    2.056614    0.441889
H      0.874236    1.819367    0.760569
H      0.523961    2.747986   -0.711220
H     -4.675144   -1.130238   -1.734539
H     -4.247310   -2.394694   -0.492893
H      6.047776   -0.261601   -2.535602
H      5.763980   -1.490614   -1.291496
H      7.555890    0.724837   -1.176018
H      2.558409   -0.527945    1.256804
H     -1.639105    0.838160    0.998870
H     -2.648071   -0.034084   -1.743850
H     -0.391905    0.702364   -1.810179
H     -4.846189    1.074520   -1.292373
H     -4.160159    3.067811   -0.445432
H     -7.122428    0.398754   -0.815791
H      1.969994    1.447206   -1.991145
H      2.028355   -0.893655   -1.726670
H     -2.763276    3.083655    1.548019
H     -7.453108   -0.507017    1.893140
