49

C      2.782940   -1.273644   -0.977524
C      2.752649    1.130084   -1.172868
C     -1.746419   -2.371959   -1.265838
C     -0.020797    4.169124    1.308237
C     -3.465894    0.247327   -0.403907
C     -2.378929    0.794902   -1.298051
C     -2.920201   -0.933891    0.310183
C      1.027792    0.008271    0.314005
C     -0.010683    0.784337   -0.441693
C      0.691179   -1.429084    0.581129
C     -0.751115   -1.624261    0.835821
C     -2.657109   -0.772757    1.742788
C     -0.448924    1.963815    0.344891
C      2.402756    0.026094   -0.248413
C     -1.576120   -1.196292   -0.337028
C     -1.117472    0.041364   -1.016797
N      3.339558    0.058332    0.891261
O     -3.461657   -0.511541    2.652810
O     -1.571534    2.103369    0.879719
O     -0.684344   -0.408169   -2.310120
O      3.745109   -1.752555    2.701947
O      2.232135    0.013587    3.319459
O      0.415066    3.058171    0.554396
O     -1.283649   -0.966957    1.955731
O      1.409601   -1.870024    1.678530
S      2.634608   -0.868547    2.143263
H      2.991181   -2.095768   -0.288579
H      3.790992   -1.031773   -1.435465
H      2.136223   -1.491095   -1.824359
H      2.370166    0.912987   -2.213614
H      3.876130    1.070871   -1.316083
H      2.570657    2.145682   -0.842928
H     -0.844800   -3.001135   -1.360806
H     -2.057618   -2.087356   -2.290260
H     -2.555510   -3.061745   -0.908673
H     -0.623806    4.859479    0.692492
H     -0.655256    3.830316    2.177934
H      0.852813    4.690620    1.777931
H     -4.338483   -0.137231   -1.024886
H     -3.942221    1.007701    0.245753
H     -2.354009    1.870430   -1.190993
H     -2.750891    0.619961   -2.349523
H     -3.577135   -1.848308    0.218860
H      1.070721    0.474657    1.348412
H      0.594606    1.253924   -1.293055
H      0.969168   -2.094332   -0.272421
H     -0.920427   -2.727254    1.014338
H      4.267376   -0.323757    0.574325
H     -0.208420   -1.255970   -2.180329
