72

C      2.102539    3.481324    1.023222
C      0.057219   -2.646260    0.683014
C     -3.447887    2.671923   -0.407030
C      6.082399   -3.094077    0.733428
C      0.959849    3.781919   -1.569125
C      0.782498   -1.430290   -1.869665
C      0.632296    3.254932    0.780519
C     -3.106643   -0.496014   -2.948374
C     -3.403872    0.669515   -2.013642
C     -2.865741   -0.413799    0.070803
C      1.211981    1.468806   -0.873455
C      3.236650   -1.224919    2.431626
C     -0.803806   -1.695001   -0.066352
C     -2.151159    1.874743   -0.289165
C      5.187637   -2.489493    1.756424
C     -1.629445   -0.670416   -2.891870
C     -1.820263   -1.125545    0.886724
C      0.750123    0.270302   -0.092326
C      2.085190   -0.512686    1.837423
C     -1.133348    0.059142   -1.716590
C     -1.022482    2.571929   -0.918973
C      0.400996    2.707761   -0.624296
C     -0.102658   -0.669285   -0.893097
C     -2.315592    0.529745   -0.932872
N     -1.640201   -3.671037    3.736775
O      5.449040   -2.613701    2.976866
O     -1.004573   -1.310980   -3.700317
O      1.261553    0.037779    2.608028
O     -1.419165    3.168337   -1.930030
O     -3.689913   -2.085890    3.829842
O     -1.430318   -1.069468    3.667069
O      4.053035   -1.779705    1.406029
O      1.847431   -0.407901    0.481394
O     -2.389570   -2.214821    1.542362
S     -2.336245   -2.164370    3.180924
H      2.624310    2.552693    1.367718
H      2.628389    3.808899    0.104233
H      2.272628    4.260385    1.806257
H     -0.397303   -3.676739    0.572792
H     -0.003112   -2.491931    1.802013
H      1.081850   -2.759626    0.320268
H     -4.329485    2.025110   -0.282607
H     -3.479438    3.381572    0.471756
H     -3.474664    3.268265   -1.336796
H      6.984704   -3.488152    1.201990
H      6.364078   -2.270633    0.039716
H      5.476172   -3.840130    0.186581
H      0.357890    3.854239   -2.485349
H      0.965638    4.774396   -1.076359
H      1.998867    3.552143   -1.860061
H      0.263153   -2.381048   -2.096285
H      1.724962   -1.774458   -1.339624
H      1.049959   -0.830682   -2.758889
H      0.131255    4.247093    0.812377
H      0.264847    2.565227    1.557074
H     -3.660011   -1.399241   -2.682668
H     -3.455584   -0.171515   -3.953715
H     -4.408678    0.464349   -1.589738
H     -3.330798    1.627171   -2.534954
H     -3.488583    0.170020    0.788385
H     -3.557209   -1.148799   -0.392880
H      2.234473    1.729441   -0.459991
H      1.382012    1.283378   -1.938428
H      3.865803   -0.453852    2.932877
H      2.849663   -1.977942    3.125542
H     -1.416906   -2.303668   -0.805514
H     -2.001242    1.717325    0.819387
H     -1.380457   -0.394086    1.570625
H      0.139255    0.663449    0.741357
H     -0.621646    0.981616   -2.112214
H     -2.032617   -3.920761    4.677950
H     -2.009733   -4.406004    3.078090
