58

C      5.642973   -0.042126   -0.977887
C      2.585199   -0.315732   -1.340597
C     -1.538666   -1.203475   -1.501158
C     -0.495397   -1.562185    1.508369
C     -1.920055   -1.202483    1.499287
C      3.855581   -0.979848    1.537157
C      2.578051   -1.716410    1.184755
C      0.440994    1.312525   -0.778553
C     -3.231978    2.002132   -0.547553
C      1.748721    1.599489   -0.075032
C     -2.372135    1.081113   -1.347389
C      4.965777    0.722648    0.070998
C      0.317845   -0.902714    0.417765
C      3.753258    0.356201    0.797107
C      1.648667   -0.575932    0.968818
C     -0.376762    0.379398    0.038771
C     -2.532401   -0.483967    0.570735
C     -4.093667    1.367334    0.480135
C     -3.953414   -0.134125    0.576495
C      2.492343    0.288857    0.013804
C     -1.695771    0.005209   -0.567622
N     -4.612793   -0.689053   -0.616527
O      5.502230    1.808194    0.362039
O     -7.164730   -0.277744   -0.208387
O     -6.131389    0.899900   -2.147945
O     -5.443366    1.632630    0.292946
S     -5.954339    0.421086   -0.759132
H      6.746831    0.193722   -0.966362
H      5.234824    0.195547   -1.980981
H      5.602319   -1.139523   -0.854736
H      2.867326    0.497247   -2.056264
H      3.306932   -1.122052   -1.463976
H      1.619448   -0.701536   -1.724055
H     -2.507493   -1.226349   -2.081897
H     -1.543418   -2.156093   -0.924088
H     -0.700070   -1.094627   -2.187450
H     -0.094591   -1.264444    2.521638
H     -0.341918   -2.671348    1.473240
H     -2.536380   -1.558928    2.335648
H      4.757994   -1.538149    1.235616
H      3.860279   -0.853599    2.638815
H      2.265493   -2.411753    1.987197
H      2.724163   -2.229911    0.205649
H     -0.106442    2.302371   -0.766394
H      0.563256    1.030268   -1.837488
H     -3.899870    2.548744   -1.272114
H     -2.592414    2.790447   -0.098061
H      1.493688    1.985853    0.932881
H      2.328967    2.338124   -0.674060
H     -3.044828    0.583435   -2.105817
H     -1.644501    1.644481   -1.924738
H      0.359376   -1.626813   -0.418966
H      3.557669    1.115224    1.621178
H      1.559276   -0.001707    1.896727
H     -0.617588    0.915976    1.001956
H     -3.824867    1.761641    1.485161
H     -4.474518   -0.454222    1.499058
H     -4.933724   -1.642947   -0.358448
