58

C     -4.941567    0.687934    2.228301
C     -3.042565    1.547793   -0.626363
C      1.912456    1.920569   -0.658947
C      0.291749   -1.015953   -1.970408
C      1.699688   -1.212613   -1.611448
C     -4.008071   -1.027452   -1.118152
C     -2.652614   -0.978258   -1.791599
C     -0.484751    1.223631    0.999626
C      3.805986    0.567908    1.479247
C     -1.838223    0.634577    1.381955
C      2.324709    0.755446    1.435636
C     -4.966529    0.162579    0.838698
C     -0.412983   -0.046942   -1.084559
C     -3.790801   -0.561244    0.327525
C     -1.739823   -0.592575   -0.708238
C      0.299933    0.218602    0.229029
C      2.384627   -0.514221   -0.712748
C      4.130014   -0.821929    0.978384
C      3.802840   -0.862373   -0.488111
C     -2.578943    0.350527    0.128363
C      1.743161    0.587131    0.046853
N      4.722466    0.054958   -1.138687
O     -5.966828    0.351348    0.167544
O      7.187120   -0.918245   -0.887831
O      6.613041    1.104652    0.446124
O      5.468013   -1.122428    1.099743
S      6.140730   -0.171393   -0.139606
H     -4.176534    0.198703    2.863329
H     -4.721377    1.791814    2.215969
H     -5.925826    0.517403    2.745159
H     -2.550929    2.490437   -0.367104
H     -2.976744    1.436924   -1.726542
H     -4.139939    1.711487   -0.418477
H      2.262133    1.782800   -1.705298
H      2.666322    2.560317   -0.151716
H      0.979937    2.500895   -0.716864
H      0.226639   -0.698042   -3.051996
H     -0.221197   -2.021077   -1.960905
H      2.223424   -2.025182   -2.152151
H     -4.641894   -0.262603   -1.606067
H     -4.446643   -2.040048   -1.147201
H     -2.649265   -0.338772   -2.688088
H     -2.372490   -2.008321   -2.160810
H      0.055260    1.593958    1.897391
H     -0.693306    2.098403    0.374371
H      4.122821    0.609878    2.534279
H      4.344669    1.362720    0.946009
H     -1.742592   -0.277063    1.971363
H     -2.363670    1.460655    1.930198
H      1.834663    0.074818    2.149712
H      2.112343    1.811302    1.769620
H     -0.473616    0.922112   -1.623518
H     -3.507688   -1.441837    0.916154
H     -1.559792   -1.493232   -0.055701
H      0.276306   -0.738027    0.791264
H      3.465069   -1.519288    1.499517
H      4.038679   -1.872174   -0.857039
H      4.452402    1.040624   -1.065187
