73

C     -6.813394    0.881191   -1.383255
C     -1.583352   -1.923785    0.703796
C      0.814117    1.748917    2.033668
C      9.343185   -0.870744   -1.226587
C      9.025707    0.230715   -0.449054
C      8.325631   -1.703591   -1.629069
C      7.700370    0.460992   -0.100858
C      7.014623   -1.472897   -1.282735
C     -3.623139   -1.158524   -1.175728
C     -1.749414    0.703807    2.166338
C      0.298109    0.421537   -1.402024
C     -4.706861   -0.367640   -1.930562
C     -0.577745   -0.729279   -1.135266
C     -3.102479    1.220158    1.721666
C     -4.731850   -0.498756    1.225596
C      5.245478   -0.120229   -0.124761
C     -4.707954    1.380215   -0.126838
C      1.180435   -0.615794    1.699670
C      6.678401   -0.373266   -0.503636
C     -0.941489    0.526514    0.900324
C     -2.848628   -0.121388   -0.405913
C      1.144116    0.888235   -0.260878
C     -5.759210   -0.719633    0.210256
C      3.390764    1.086798   -1.062621
C     -5.548326    0.308449   -0.840112
C     -1.489214   -0.581400    0.065520
C      0.520722    0.571491    1.088120
C     -3.729589    0.454279    0.623990
N      0.846574   -3.161410    3.956096
N      0.645516   -0.874771    3.024354
N      2.513456    0.472226   -0.347891
N      0.676567   -2.056615    3.401451
O     -6.613214   -1.575010    0.226592
O      2.991422    2.201311   -1.780006
O      4.714908    0.693684   -1.153695
H     -7.668150    0.421032   -0.863900
H     -6.892722    0.832391   -2.493884
H     -6.838675    1.968321   -1.116486
H     -1.609870   -1.959245    1.787533
H     -2.499126   -2.491384    0.356198
H     -0.748991   -2.617560    0.380215
H      1.860773    2.092936    1.910073
H      0.724723    1.349921    3.058794
H      0.099418    2.580964    1.869084
H     10.386226   -1.048356   -1.498301
H      9.812838    0.890723   -0.127395
H      8.597145   -2.572035   -2.245212
H      7.447252    1.325049    0.509678
H      6.216229   -2.137524   -1.606070
H     -4.222500   -1.832923   -0.494993
H     -3.038628   -1.761007   -1.867369
H     -1.299409    1.458925    2.839742
H     -1.904215   -0.197502    2.750235
H      0.992643    0.133537   -2.228337
H     -0.327600    1.250135   -1.846972
H     -4.253759    0.376074   -2.592269
H     -5.378873   -1.084689   -2.427868
H      0.069622   -1.649153   -1.042221
H     -1.203672   -0.909258   -2.032348
H     -2.916993    2.270059    1.351219
H     -3.810938    1.313523    2.568344
H     -5.207331    0.047794    2.080527
H     -4.288389   -1.404126    1.648633
H      4.688498   -1.048357    0.015727
H      5.299270    0.519403    0.790597
H     -5.359826    1.922739    0.551508
H     -4.191986    1.976901   -0.884027
H      2.254553   -0.306089    1.886637
H      1.250954   -1.500749    1.066883
H     -1.172049    1.468831    0.299172
H     -2.623153    0.696889   -1.156781
H      1.155656    2.017318   -0.329825
H      2.056810    2.280701   -2.137744
