70

C      0.281535   -3.515892   -2.230076
C     -3.516943   -1.584117    1.685247
C      6.583510   -0.880939    0.825931
C     -1.472151   -3.584132    0.161442
C      1.331412    1.270450    1.243772
C     -0.855452   -2.599541   -1.976557
C     -2.021101    1.503312    3.444147
C     -3.067810    0.921891    2.544508
C     -2.724946    1.797337    0.326711
C      0.032409   -1.695481    0.196342
C      0.572092    2.273555   -1.535632
C      3.948213   -0.675660   -1.938419
C     -3.009717   -0.598059    0.628711
C      5.894851   -0.833068   -0.479914
C     -0.304934    2.063575   -0.322605
C     -0.922333    1.793758    2.488693
C     -1.713525    2.144886   -0.732827
C      0.474252   -0.351313   -0.293197
C      2.472354   -0.543258   -1.736205
C     -0.966855    0.631611    1.551700
C     -2.276516   -1.303437   -0.424021
C     -1.152443   -2.277743   -0.551202
C      0.069940    0.843096    0.489881
C     -2.383603    0.627478    1.186873
N      0.576360    3.694022   -1.942284
O      6.606050   -0.906105   -1.521705
O     -0.232965    2.775662    2.567603
O      1.776104   -0.491253   -2.764546
O     -2.679015   -1.041325   -1.566697
O     -0.599698    5.350825   -0.216301
O     -1.290397    5.418384   -2.528032
O      4.532614   -0.714498   -0.644576
O      1.875498   -0.479071   -0.514190
O     -2.088764    3.458819   -1.084977
S     -0.861695    4.476731   -1.435641
H      1.271211   -3.168837   -1.930636
H      0.346474   -3.614514   -3.357378
H      0.087047   -4.581369   -1.911499
H     -4.533459   -1.341266    2.030202
H     -2.785488   -1.813653    2.448121
H     -3.664528   -2.544294    1.101516
H      5.980929   -1.377179    1.619722
H      6.863885    0.154929    1.108972
H      7.541445   -1.465579    0.712497
H     -2.364857   -4.079839   -0.201529
H     -1.439422   -3.406164    1.263446
H     -0.570612   -4.240691   -0.020806
H      1.279275    1.033875    2.323967
H      1.536817    2.358738    1.157963
H      2.262861    0.828066    0.781144
H     -0.693037   -1.679657   -2.594863
H     -1.762159   -3.080152   -2.450447
H     -1.628982    0.757851    4.171761
H     -2.353081    2.390190    4.008481
H     -3.433728    0.021907    3.031898
H     -3.937372    1.588233    2.395817
H     -3.666410    1.552500   -0.212712
H     -3.004086    2.708444    0.938502
H      0.835421   -2.450493   -0.087818
H     -0.037879   -1.820795    1.279926
H      1.650222    2.106969   -1.296613
H      0.229537    1.733043   -2.424998
H      4.357965    0.115695   -2.566214
H      4.100350   -1.692337   -2.378252
H     -3.986064   -0.253521    0.158877
H     -0.110256    3.003730    0.285765
H     -1.893896    1.567343   -1.662547
H      0.030870   -0.257733   -1.329362
H     -0.763397   -0.235243    2.207605
H      1.368070    4.211304   -1.502461
