77

C     -0.702453   -5.097875   -2.110091
C     -5.298452    3.333407    1.150735
C     -1.148153   -0.293591   -1.865763
C      0.596149   -2.496347    1.733983
C      5.151221    2.912531   -1.099331
C      5.257013    1.874659   -2.011720
C      5.150588    2.612096    0.232376
C      5.357953    0.575545   -1.564255
C      5.252552    1.308282    0.652670
C     -2.449308    2.127995   -1.048068
C     -1.838542   -1.743598    0.657937
C      1.309789    0.988866    0.576312
C     -3.229024    3.141357   -0.186597
C      0.420354    1.028652   -0.601485
C     -3.007935   -0.921758    1.115401
C     -4.334066    0.249644   -0.542233
C      5.477150   -1.172470    0.170064
C     -3.872793    1.328729    1.433177
C      1.144894   -2.152350   -0.585083
C      0.351897   -4.062579   -1.935325
C      5.359066    0.249409   -0.218870
C     -0.666118   -0.795007    0.559861
C     -2.006783    1.085279   -0.054611
C      1.633025   -0.374551    1.122840
C     -5.004688    1.568221   -0.578984
C      3.855937   -0.895731    1.893106
C     -4.367103    2.391482    0.469209
C     -0.849334    0.240741   -0.508212
C      0.656211   -1.443469    0.613567
C     -3.190220    0.370055    0.434687
N      2.990222   -0.760727    0.961894
O      1.343177   -3.954887   -2.703074
O     -5.897874    1.937152   -1.305058
O      3.483144   -0.651550    3.214684
O      5.133195   -1.282840    1.533822
O      0.231400   -3.190953   -0.889107
H     -1.719862   -4.723044   -1.857244
H     -0.502338   -5.930711   -1.402001
H     -0.676783   -5.542882   -3.121546
H     -6.243548    2.869691    1.445675
H     -4.794910    3.683407    2.086208
H     -5.435978    4.251118    0.534578
H     -1.897033    0.348277   -2.420105
H     -1.502792   -1.322361   -1.906084
H     -0.258056   -0.243540   -2.564998
H      1.673989   -2.696961    1.978352
H      0.100202   -2.092945    2.636761
H      0.180084   -3.448559    1.374346
H      5.069539    3.952650   -1.416362
H      5.257615    2.123983   -3.079875
H      5.069904    3.394777    0.955553
H      5.440142   -0.220670   -2.287291
H      5.254485    1.093951    1.728193
H     -3.218973    1.747131   -1.766806
H     -1.656685    2.647415   -1.574178
H     -2.008400   -2.350773   -0.221127
H     -1.597845   -2.452125    1.497396
H      0.888449    1.686491    1.341540
H      2.286994    1.446920    0.278091
H     -2.569988    3.622841    0.541194
H     -3.661950    3.853501   -0.892405
H      1.008386    0.787388   -1.510757
H      0.121048    2.108474   -0.741796
H     -3.910435   -1.558968    1.052265
H     -2.858791   -0.726277    2.218667
H     -5.073932   -0.456549   -0.061637
H     -4.080801   -0.170615   -1.499522
H      6.556015   -1.482814    0.100537
H      4.859561   -1.830893   -0.476498
H     -3.134945    1.722183    2.158499
H     -4.745659    0.847611    1.875828
H      1.393583   -1.576567   -1.461689
H      2.092926   -2.688806   -0.282756
H     -0.740936   -0.219282    1.539202
H     -1.565200    1.683813    0.802332
H      1.406088   -0.312859    2.211830
H      2.904741    0.142760    3.469169
