81

C      8.432931   -0.368570   -0.703210
C      4.937980    2.329983    0.323359
C      7.348898    2.211066    0.263402
C      2.416836   -2.643900   -1.203698
C     -0.160025   -1.906874    0.774008
C     -4.411626   -1.335127    0.821543
C      7.085187   -0.820179   -0.259219
C      3.749254   -0.697203   -0.721494
C      4.733819   -0.553848    0.111706
C     -2.562620    1.832899    0.677541
C     -4.013115    1.970156    0.463322
C      1.630676    0.742276    0.379357
C      0.317918    0.967524    1.141698
C     -2.255029   -1.435547   -1.198421
C     -6.550456   -0.884679   -1.273976
C     -0.785125   -1.264293   -1.525716
C     -5.064978   -0.838679   -1.480386
C      6.140198    1.369707    0.506012
C      2.454877   -1.400732   -0.383623
C      5.972151    0.181199   -0.384703
C     -2.068746    0.412019    0.507732
C      1.372308   -0.426300   -0.555914
C     -0.642227    0.473644    0.126446
C     -2.839856   -0.188641   -0.643432
C     -4.803984    1.001237    0.032525
C     -7.095926    0.070669   -0.275502
C     -6.246359    1.279118   -0.138743
C     -0.026635   -0.858888   -0.266441
C     -4.300389   -0.361500   -0.293489
N     -6.683617    2.050300    0.997493
O     -8.810603    1.165157    2.350651
O     -6.578076    0.552637    3.219523
O     -7.320421   -0.492286    0.970376
S     -7.385111    0.840447    2.010267
H      8.922021   -1.175697   -1.314692
H      9.091445   -0.317223    0.216040
H      8.473084    0.536804   -1.309569
H      4.252277    2.102793    1.163143
H      4.452681    2.179829   -0.640617
H      5.243241    3.377924    0.440306
H      8.284401    1.842797    0.672884
H      7.449866    2.583633   -0.780598
H      7.154563    3.175855    0.845084
H      2.133166   -2.507093   -2.247263
H      1.849191   -3.460515   -0.686481
H      3.470261   -3.053888   -1.235153
H     -1.094846   -1.752294    1.351111
H      0.664656   -1.882556    1.512662
H     -0.274039   -2.936424    0.325249
H     -4.737228   -0.902014    1.788693
H     -5.149766   -2.115815    0.552146
H     -3.471618   -1.876678    1.051621
H      6.840402   -1.767050   -0.830897
H      7.102691   -1.194776    0.811378
H      3.824390   -0.298550   -1.736952
H      4.667882   -0.938477    1.099702
H     -2.030700    2.506568   -0.022647
H     -2.264717    2.153319    1.699285
H     -4.440994    2.953497    0.683896
H      1.849690    1.674761   -0.137755
H      2.451188    0.522366    1.092493
H      0.200453    2.032820    1.410871
H      0.388889    0.328844    2.045043
H     -2.343777   -2.326119   -0.577674
H     -2.757360   -1.610798   -2.195588
H     -7.013852   -0.667979   -2.283140
H     -6.887705   -1.947264   -1.077234
H     -0.440841   -2.211687   -1.942854
H     -0.642800   -0.481570   -2.299322
H     -4.832195   -0.126320   -2.320008
H     -4.762222   -1.881399   -1.793961
H      6.188758    1.011850    1.553486
H      2.550854   -1.719250    0.676173
H      5.812231    0.492313   -1.439050
H     -2.272057   -0.095788    1.468444
H      1.376166   -0.007302   -1.585022
H     -0.552008    1.124444   -0.775964
H     -2.813850    0.584240   -1.464367
H     -8.099458    0.421373   -0.627977
H     -6.423141    1.904971   -1.058277
H     -7.377384    2.770736    0.742362
