59

C     -4.544383    2.278230   -0.750129
C      2.650116   -0.362282   -1.871774
C     -0.422724   -2.053695    0.966872
C      1.337397   -2.990686   -1.034084
C     -2.530691   -0.945530   -1.129770
C      0.793942    0.275575    1.346387
C      2.442938   -2.253479   -0.387325
C      0.125968   -2.185602   -1.375044
C     -3.570454    0.118684   -1.359378
C     -0.524763    0.928596    1.514888
C     -2.815453   -0.087254    1.485828
C     -2.322326    1.759318    0.088644
C      3.447359   -0.184043    0.400785
C      0.993755   -0.225061   -0.052219
C     -1.324813   -0.307712   -0.538807
C     -4.044369    0.580866    0.994969
C     -3.656275    1.160757   -0.311532
C      2.306489   -0.752571   -0.420642
C     -0.164830   -1.208199   -0.268100
C     -1.659320    0.494065    0.676172
N      4.208559    3.648581    1.108709
O     -5.122678    0.652887    1.514577
O      5.983972    1.921347    0.304141
O      4.857549    1.400542    2.400840
O      3.454450    1.183208    0.186852
S      4.664125    1.970179    1.028255
H     -4.039226    3.285459   -0.672292
H     -5.461428    2.355529   -0.155264
H     -4.794462    2.186457   -1.839802
H      1.731686   -0.008091   -2.405712
H      3.318931    0.531039   -1.880296
H      3.186794   -1.155127   -2.394342
H     -1.246158   -2.762043    0.645559
H      0.412208   -2.711108    1.224499
H     -0.694864   -1.499718    1.858823
H      1.042674   -3.837764   -0.352418
H      1.648389   -3.517601   -1.984093
H     -2.900323   -1.840409   -0.624881
H     -2.231431   -1.297839   -2.164788
H      1.602115    1.040197    1.552505
H      1.040003   -0.508042    2.122951
H      3.380883   -2.482407   -0.983112
H      2.719977   -2.594144    0.638591
H      0.107786   -1.760359   -2.385188
H     -0.746524   -2.906973   -1.354730
H     -3.443502    0.628948   -2.348977
H     -4.552276   -0.397377   -1.414225
H     -0.831402    0.774617    2.594730
H     -0.381579    2.050809    1.473222
H     -2.981263   -1.167809    1.292212
H     -2.661303    0.039471    2.564790
H     -2.484458    2.465862    0.901221
H     -1.755237    2.137662   -0.769159
H      4.403275   -0.623728    0.032093
H      3.375163   -0.463205    1.469725
H      0.835445    0.699270   -0.695003
H     -0.949285    0.400891   -1.345095
H      3.800149    3.844186    2.035859
H      4.985705    4.276628    0.843488
