87

C      3.773755   -2.908973   -1.976339
C      5.477181   -3.392333   -0.338155
C     -2.620784   -0.495161    2.165457
C     -5.096652    1.042949    1.134243
C      0.537801    0.375481   -1.860681
C      0.355315    0.862148    1.902986
C      5.050987    3.119454    2.417568
C      1.245681   -1.690265    0.041573
C     -0.094848   -1.756221    0.764900
C      5.532405   -0.430332   -0.371979
C     -2.494494    1.635910   -0.310483
C     -4.355914   -2.174652    0.454977
C     -2.868638   -2.048084    0.361992
C     -1.207773    1.870227    0.371693
C      5.100826    0.818716   -1.171268
C      1.556498    2.103106   -0.545180
C      2.944113    2.085795   -1.082850
C     -5.098910    1.035878   -1.289923
C      4.411642   -2.476254   -0.909723
C      4.213928   -1.215385   -0.188997
C      1.857180   -0.326099    0.076934
C     -3.085527    0.276692   -0.195663
C     -0.919559   -0.611017    0.315806
C     -5.152027   -1.104782   -0.156805
C      3.150585   -0.305072   -0.670999
C      4.083478    1.403793    0.939693
C     -2.365883   -0.649503    0.735384
C     -4.592155    0.285755   -0.044900
C      0.916804    0.746009   -0.451620
C     -0.260586    0.735853    0.504953
C      3.775432    1.052734   -0.434855
N     -6.488028    0.918535   -1.515771
O      3.896867    0.774105    1.994257
O     -8.399635    0.655398    0.344760
O     -8.184030   -1.042223   -1.353582
O      4.699108    2.663857    1.125256
O     -6.411107   -1.068184    0.490135
S     -7.373552   -0.087220   -0.484754
H      4.012963   -3.880070   -2.411467
H      3.011905   -2.270287   -2.413923
H      6.445543   -3.231874   -0.817789
H      5.600224   -3.225057    0.748330
H      5.095648   -4.441641   -0.447960
H     -3.615353   -0.910663    2.420205
H     -2.536570    0.474016    2.622121
H     -1.890951   -1.165185    2.710219
H     -5.576639    0.369023    1.903852
H     -4.358082    1.677344    1.653218
H     -5.934562    1.754193    0.864272
H      1.281089    0.848124   -2.576509
H     -0.430521    0.868847   -2.171111
H      0.565618   -0.679428   -2.109188
H      1.256693    1.509196    1.915500
H     -0.350815    1.437665    2.579968
H      0.518954   -0.085507    2.401434
H      6.169446    3.152278    2.542831
H      4.687036    4.162632    2.502483
H      4.672917    2.461029    3.215984
H      1.923259   -2.358365    0.645671
H      1.190055   -2.170918   -0.948422
H     -0.581247   -2.686739    0.336937
H     -0.021603   -1.947735    1.828932
H      6.260814   -0.972753   -0.966800
H      5.951733   -0.104159    0.579934
H     -2.397100    1.976252   -1.386458
H     -3.273403    2.360160    0.080169
H     -4.609534   -3.142883   -0.073915
H     -4.714711   -2.363997    1.509728
H     -2.554621   -2.322088   -0.662276
H     -2.455188   -2.781683    1.117809
H     -0.672455    2.713724   -0.147219
H     -1.451904    2.337926    1.376839
H      5.811621    1.644044   -1.036835
H      4.917057    0.609357   -2.218906
H      1.498460    2.732466    0.336672
H      0.966160    2.677275   -1.329207
H      2.929708    1.988120   -2.196842
H      3.393635    3.092391   -0.888904
H     -4.544611    0.649258   -2.178082
H     -4.833750    2.097151   -1.198301
H      4.055825   -1.459034    0.879435
H      2.107024   -0.154711    1.143971
H     -2.935197   -0.199974   -1.220252
H     -0.993458   -0.740569   -0.810429
H     -5.387970   -1.363121   -1.215303
H      2.988575   -0.372345   -1.781796
H     -6.701203    0.757676   -2.543038
