62

C      9.807869    0.621725    0.405368
C     -4.467532    2.796632    1.369059
C     -6.433590    1.821934    0.273442
C     -5.139529    0.455565    1.817371
C     -4.945080   -0.284268   -1.668999
C     -3.710476    2.523829   -1.762261
C      0.780356   -2.127553    0.638925
C      2.102212   -2.634477    0.193443
C     -0.285576   -1.698157    0.992581
C      7.767582    0.078433   -0.965468
C      7.508903    1.276605    1.053626
C      6.393504    0.133177   -1.159668
C      6.130482    1.324331    0.846526
C      2.842534   -1.531715   -0.564132
C     -1.846178   -1.793451   -0.906345
C      8.342170    0.659775    0.161780
C      5.558972    0.750359   -0.267203
C     -1.599221   -1.144813    1.428585
C     -2.442572   -0.899379    0.198777
C     -5.012958    1.524997    0.747698
N     -2.321968   -2.208018    2.157307
O      3.332879    2.173849    0.008314
O      3.563643    0.748507   -1.958573
O     -4.002753   -3.466509    0.611857
O     -2.084228   -4.765545    1.431117
O      3.036221   -0.422906    0.254607
O     -1.634323   -3.076010   -0.430151
O     -2.439592    0.392509   -0.254416
S      3.827445    0.830836   -0.483692
S     -2.552072   -3.434352    0.927379
Si    -3.962109    0.987885   -0.689649
H     10.239680    1.643265    0.354236
H     10.329626   -0.042986   -0.322091
H     10.050509    0.209199    1.420719
H     -4.591097    3.654068    0.672450
H     -3.410231    2.679012    1.667188
H     -5.092296    3.041898    2.257452
H     -6.760793    2.851903    0.591292
H     -7.170514    1.100861    0.674493
H     -6.503855    1.752995   -0.847761
H     -5.538648   -0.484890    1.376265
H     -4.158419    0.315930    2.299068
H     -5.868616    0.850929    2.577505
H     -6.018934   -0.023125   -1.693435
H     -4.832855   -1.283661   -1.220314
H     -4.510428   -0.330774   -2.698788
H     -3.469711    2.186651   -2.783344
H     -4.605919    3.154962   -1.784501
H     -2.851448    3.128351   -1.380775
H      2.659570   -2.989770    1.060509
H      1.996840   -3.476825   -0.519962
H      8.430247   -0.401485   -1.651907
H      7.911538    1.738697    1.943467
H      5.934715   -0.324755   -2.049971
H      5.524636    1.828107    1.589330
H      2.228926   -1.243133   -1.427972
H      3.797684   -1.988742   -0.880287
H     -0.859281   -1.349783   -1.142215
H     -2.456860   -1.746921   -1.817143
H     -1.413142   -0.267095    2.041161
H     -3.508625   -1.194423    0.350181
H     -1.597314   -2.602253    2.820925
