32

C     -1.222586    0.919815    1.649936
C     -2.047344   -1.124833    0.489003
C     -1.178094   -0.188781   -1.888535
C      0.067332   -0.881258   -1.312598
C     -0.227874    1.815635   -0.908261
C      0.953423   -1.143818    1.028905
C     -1.417029    0.889454   -0.854938
C      0.842136    1.097426   -0.109666
C     -1.164532    0.075771    0.424671
C      0.282840   -0.296781    0.049495
N      2.355532   -0.947958    1.204079
O      3.883447   -0.700546   -0.984113
O      4.141194    0.896749    0.806680
O      2.077578    1.125205   -0.691294
S      3.100949    0.060561    0.072598
H     -1.476350    1.964360    1.456491
H     -2.056161    0.512841    2.292921
H     -0.309416    0.813549    2.304564
H     -2.039151   -1.505205    1.531818
H     -3.099849   -0.766679    0.291286
H     -1.764927   -1.918984   -0.208367
H     -0.948202    0.317561   -2.842991
H     -2.021480   -0.896215   -1.962455
H     -0.049198   -1.980145   -1.313307
H      0.911024   -0.657766   -2.003475
H      0.146871    1.849324   -1.971332
H     -0.430497    2.827155   -0.556479
H      0.806297   -2.226067    0.741981
H      0.465517   -1.058549    2.034438
H     -2.377812    1.356766   -0.886125
H      0.899860    1.633381    0.875088
H      2.896504   -1.861969    1.239981
