32

C     -1.883489   -0.849538   -1.173910
C     -0.976432    1.422671   -1.401102
C     -1.427708   -0.821117    1.501798
C     -0.095560   -1.322861    0.926992
C     -0.362171    1.349326    1.411807
C      1.155305   -0.805677   -1.194031
C     -1.525887    0.543910    0.880127
C      0.831011    0.956465    0.565318
C     -1.055952    0.214542   -0.545353
C      0.321884   -0.297173   -0.102862
N      2.469170   -1.101815   -0.698330
O      4.335567   -0.224089    0.954662
O      3.534594    1.335219   -0.752734
O      1.981065    0.760307    1.282770
S      3.152108    0.223489    0.173183
H     -1.688674   -0.842920   -2.263283
H     -1.682034   -1.870262   -0.808625
H     -2.951286   -0.577697   -1.048708
H     -0.949364    2.379881   -0.825384
H     -1.942047    1.482150   -1.985392
H     -0.180947    1.412294   -2.155245
H     -2.256358   -1.491327    1.218096
H     -1.385857   -0.787619    2.617122
H     -0.179267   -2.319735    0.495930
H      0.649218   -1.280919    1.750605
H     -0.550103    2.426752    1.412322
H     -0.110994    1.045231    2.463958
H      1.201003   -0.078882   -2.011027
H      0.721810   -1.752995   -1.569528
H     -2.481370    1.020750    0.922330
H      0.952351    1.750511   -0.198902
H      2.380417   -1.898873   -0.002245
