63

C      1.460503   -2.268697   -1.556304
C     -3.331511   -1.443635   -1.930069
C     -2.362804    0.710856   -2.656645
C     -3.899996    0.659888   -0.752005
C      3.533968    2.549436   -0.348637
C      5.233913    1.304794   -1.563837
C     -1.269540    3.502921    2.280609
C     -2.647258   -3.910083    2.414013
C     -1.614315    3.526700    0.945779
C     -0.954345    2.285551    2.857619
C     -1.904930   -4.124527    1.288339
C     -3.003060   -2.615367    2.727498
C     -1.648138    2.366871    0.190344
C     -0.980567    1.116929    2.126886
C     -1.515745   -3.053126    0.474037
C     -2.613876   -1.544749    1.913333
C      2.990927    0.262669   -1.167134
C      1.064451   -1.230483   -0.523370
C     -1.329509    1.183497    0.799933
C     -1.866892   -1.763681    0.781936
C      2.309225   -0.500599   -0.094100
C     -2.808111   -0.094712   -1.470480
C      4.060068    1.150582   -0.608937
N      4.619206    0.677716    0.648593
O      3.463776   -0.645548    2.668108
O      3.289163    1.840380    2.651173
O      1.931958    0.416781    0.910518
O      0.088479   -0.442939   -1.028980
S      3.344867    0.597310    1.846857
Si    -1.384916   -0.356203   -0.246387
H      0.522735   -2.536384   -2.116843
H      2.213832   -1.923726   -2.273569
H      1.798559   -3.200921   -1.044214
H     -2.534375   -2.139315   -2.213284
H     -3.949505   -1.272221   -2.845726
H     -4.018751   -1.824289   -1.156040
H     -1.276809    0.954946   -2.638888
H     -3.000320    1.607230   -2.844475
H     -2.492033    0.077824   -3.565452
H     -3.595162    0.876263    0.289394
H     -4.141598    1.626568   -1.276263
H     -4.821106    0.018718   -0.764121
H      2.540103    2.546887    0.139847
H      3.479742    3.156294   -1.278883
H      4.306831    3.040864    0.310452
H      6.119791    1.608555   -0.966934
H      5.067394    2.142664   -2.289669
H      5.489683    0.357712   -2.064925
H     -1.252221    4.434155    2.850849
H     -2.946064   -4.758138    3.044215
H     -1.873764    4.446409    0.425876
H     -0.682765    2.258450    3.903184
H     -1.615363   -5.144567    1.026720
H     -3.588543   -2.463787    3.618403
H     -1.926295    2.422924   -0.872502
H     -0.721006    0.152477    2.603215
H     -0.936227   -3.326130   -0.393870
H     -2.955065   -0.565334    2.254026
H      3.443750   -0.344346   -1.968729
H      2.240375    0.923832   -1.692832
H      0.738399   -1.804320    0.386176
H      3.021775   -1.258563    0.307387
H      5.089007   -0.249266    0.558492
