69

C     -2.889658   -3.664534    2.085144
C     -3.406580   -3.292754   -0.344530
C      1.615283   -1.880698   -1.731970
C     -7.713455    1.892860   -2.066845
C     -3.247975    3.888648    0.453869
C     10.466498    0.584674    0.230708
C      5.291963    2.954752    0.702007
C     -0.976084   -1.155451   -0.086682
C      4.186813    2.446669    0.044903
C      6.532592    2.413957    0.556360
C     -5.137910   -0.828316   -0.061416
C     -5.986350    0.075665   -0.717750
C      3.204624    0.744470   -1.454833
C     -1.687908   -1.152463    1.205581
C      0.477165   -0.971009    0.234969
C      2.570554   -0.115919   -0.420841
C      5.650119    0.798376   -0.925900
C     -3.748253    0.948468    0.585631
C     -3.434103   -1.207313    2.750720
C     -3.576408   -2.789088    1.026434
C      4.407713    1.354851   -0.766126
C      6.751888    1.308260   -0.271670
C     -4.011023   -0.406057    0.597258
C     -5.720516    1.417059   -0.726836
C     -4.574739    1.850529   -0.056349
C      8.081952    0.728181   -0.402251
C     -3.139519   -1.362566    1.287295
N     -3.662494   -1.082307    3.903910
N      1.387417   -0.830398   -0.834352
O      8.242179   -0.194855   -1.239091
O     -6.545205    2.343844   -1.374793
O     -4.339712    3.209119   -0.089817
O      9.168650    1.144234    0.348677
H     -1.825999   -3.785138    1.917893
H     -3.447440   -4.652528    2.117857
H     -3.126850   -3.202905    3.064005
H     -2.488417   -3.952787   -0.421364
H     -4.230477   -4.023538   -0.583875
H     -3.429037   -2.551886   -1.156616
H      2.639588   -2.308462   -1.484064
H      0.899388   -2.707408   -1.555775
H      1.699715   -1.584326   -2.802362
H     -8.305262    1.287374   -1.347994
H     -8.352938    2.745448   -2.352077
H     -7.468507    1.210654   -2.900603
H     -2.596950    4.305901   -0.361991
H     -2.658401    3.186338    1.067021
H     -3.539979    4.737235    1.125621
H     11.205820    1.320788   -0.112522
H     10.453888   -0.344796   -0.387241
H     10.742765    0.267991    1.267088
H      5.115932    3.812355    1.337823
H     -1.084933   -2.026848   -0.716188
H     -1.271492   -0.258552   -0.709803
H      3.191337    2.853289    0.122495
H      7.397435    2.815414    1.082846
H     -5.442515   -1.847158   -0.124936
H     -6.879974   -0.298709   -1.235653
H      2.515137    1.577213   -1.707816
H      3.561513    0.177692   -2.318099
H     -1.475385   -0.149050    1.676433
H     -1.197453   -1.866060    1.918150
H      0.755190   -1.819358    0.937712
H      0.555828   -0.058617    0.882719
H      2.295386    0.510162    0.465343
H      3.272632   -0.896762   -0.010117
H      5.803051   -0.069531   -1.575716
H     -2.872814    1.248323    1.109336
H     -4.647301   -2.822645    1.331060
