43

C      1.804322    3.905708   -0.405616
C      0.460737    3.836580   -0.581074
C      4.809164   -0.637110    0.487124
C      4.193480   -1.868436    0.518162
C      2.535609    2.755708   -0.170338
C     -0.186189    2.586989   -0.521755
C      4.050167    0.522807    0.275171
C      2.204842   -3.222348    0.375514
C      0.848360   -3.336610    0.203444
C     -1.266547   -2.267999   -0.172641
C      2.831128   -1.984859    0.343181
C      0.105541   -2.166687   -0.007095
C      1.924405    1.515084   -0.106691
C      2.698020    0.397264    0.102241
C      0.531093    1.465340   -0.288911
C     -2.035330   -1.168357   -0.368627
C      2.070964   -0.818907    0.130419
C      0.709125   -0.932265   -0.042635
C     -0.074533    0.221190   -0.248566
C     -1.439489    0.105000   -0.407367
C     -3.502875   -1.327027   -0.527997
C     -4.005694   -0.405630    0.609907
C     -2.394255    1.192512   -0.549336
C     -3.759477    0.956912    0.131354
O     -3.956396   -0.852355   -1.742435
O     -3.271910   -0.723471    1.750874
O     -2.832817    1.809223    0.606648
H      2.369226    4.826953   -0.436511
H     -0.090709    4.759644   -0.765515
H      5.877345   -0.574733    0.627065
H      4.740327   -2.785926    0.678474
H      3.605229    2.818951   -0.032561
H     -1.194165    2.651347   -0.711879
H      4.611226    1.422748    0.269998
H      2.808381   -4.098989    0.539582
H      0.314816   -4.276928    0.220264
H     -1.722036   -3.246849   -0.143431
H     -3.862184   -2.317843   -0.272550
H     -5.058624   -0.564954    0.804803
H     -2.670466    1.537643   -1.596824
H     -4.651930    1.462219   -0.310802
H     -4.860617   -1.211930   -1.916691
H     -3.267265    0.040392    2.380539
