26

C      1.187937    1.272500    0.550888
C     -3.746871    0.182480    0.030261
C     -2.959501    1.133750   -0.600355
C     -3.181606   -1.017334    0.356561
C     -1.638437    0.840097   -0.876504
C     -1.862509   -1.298708    0.075926
C      2.725593   -0.527958   -0.111549
C      3.635722   -0.225844    1.016127
C      0.355456   -0.612277   -0.875756
C      1.295612   -0.199373    0.227273
C     -1.053007   -0.370650   -0.551750
O      4.811908   -0.434244    0.899612
H      0.324742    1.503794    1.204972
H      1.128741    1.835623   -0.423541
H      2.100695    1.643658    1.045690
H     -4.787743    0.412408    0.248419
H     -3.373381    2.086729   -0.870086
H     -3.812092   -1.767302    0.856649
H     -1.064355    1.630693   -1.376436
H     -1.416362   -2.250822    0.335585
H      2.791264   -1.629861   -0.335880
H      3.088363    0.033151   -0.996826
H      3.257957    0.178631    1.940677
H      0.604478    0.009000   -1.767801
H      0.556888   -1.651545   -1.146470
H      1.030510   -0.776597    1.144316
