51

C     -5.058857    1.836697    0.276289
C      6.694479   -0.570811    2.022672
C      5.537460    0.489653   -0.339503
C      4.952791    0.999828   -1.478874
C      0.881561    1.026762   -2.049402
C     -2.729641   -2.390192    0.568863
C      1.740548    1.543319   -2.987566
C     -1.839293   -1.712218    1.610467
C     -1.592532   -0.911576   -0.948871
C      3.369361   -0.040599    0.436311
C     -2.813673    0.425101    1.363753
C     -4.224508    0.908053   -0.596962
C     -3.007238   -1.284853   -0.447988
C      4.738610   -0.044317    0.645955
C      1.365669    0.473095   -0.883711
C      2.762228    0.458697   -0.686597
C     -3.669896   -0.169436    0.285891
C      3.568156    0.997857   -1.679128
C     -0.926730    0.001400    0.095679
C      0.549164   -0.123316    0.156265
N      3.075463    1.532955   -2.812627
N     -1.559243   -0.351280    1.346506
O     -5.101395    0.385565   -1.548523
O      0.871490   -1.460534    0.311440
O      5.297584   -0.568191    1.810936
H     -5.656844    2.541733   -0.336122
H     -5.705266    1.209869    0.920897
H     -4.415782    2.438909    0.950426
H      7.156607    0.428890    1.908260
H      6.871745   -0.854355    3.096558
H      7.209863   -1.298994    1.356029
H      6.619799    0.495343   -0.193079
H      5.553479    1.420912   -2.262201
H     -0.163957    1.078069   -2.217110
H     -2.113402   -3.157585    0.033407
H     -3.651318   -2.806079    0.977373
H      1.329643    1.980073   -3.911271
H     -0.992212   -2.305627    1.910169
H     -2.507578   -1.697873    2.535757
H     -1.653830   -0.492687   -1.944154
H     -1.048440   -1.873659   -1.031426
H      2.782919   -0.441608    1.226981
H     -2.533317    1.474688    1.143711
H     -3.240324    0.389007    2.365191
H     -3.442231    1.516775   -1.072063
H     -3.603710   -1.630230   -1.288382
H     -4.549046   -0.632419    0.819858
H     -1.280950    1.018342   -0.176360
H      0.837729    0.441318    1.118140
H     -5.732884    1.105891   -1.786573
H      1.047747   -1.800364    1.182917
