49

C     -5.491144    0.155846    1.308170
C      4.952253   -2.042863    1.376258
C     -2.409713   -1.358092   -2.309717
C     -3.531234   -0.860468   -2.927611
C     -1.138788   -1.899354   -0.286789
C      0.631315    0.652080    1.763076
C      2.383689    2.181979    0.861507
C     -3.400994   -0.845966   -0.233237
C      2.997698   -0.025049    1.318286
C      0.546420   -0.360145   -1.362587
C     -2.333213   -1.354784   -0.938358
C      2.006583    0.933002    1.306034
C     -0.004161   -0.955558   -0.075685
C     -0.350314    0.284093    0.711308
C     -4.591392   -0.354014   -2.211091
C      3.691538    2.476657    0.443308
C     -4.547825   -0.336286   -0.839508
C      4.286948    0.240346    0.912873
C      4.667699    1.506190    0.462485
C     -0.569120    1.343409   -0.296621
O     -5.711918    0.141425   -2.903402
O      3.979965    3.744453    0.016308
O      5.985939    1.720338    0.063797
O     -0.957904    2.496205   -0.092563
O     -5.611060    0.171954   -0.101992
O      5.272779   -0.734704    0.931009
O     -0.254410    0.798185   -1.522644
H     -5.541784   -0.911728    1.666697
H     -4.571609    0.637933    1.671718
H     -6.396195    0.637631    1.768481
H      4.297133   -2.524927    0.651521
H      5.876682   -2.637947    1.577921
H      4.432148   -1.988447    2.368495
H     -1.615163   -1.749048   -2.946407
H     -3.618940   -0.850876   -4.029302
H     -0.799622   -2.828915   -0.830035
H     -1.435646   -2.303911    0.726620
H      0.620453   -0.194018    2.514913
H      0.214710    1.515186    2.361953
H      1.645236    2.977661    0.829936
H     -3.412762   -0.826972    0.850970
H      2.766337   -1.044649    1.672054
H      1.580714    0.027146   -1.187953
H      0.489313   -1.024001   -2.222494
H      0.854502   -1.475703    0.393121
H     -1.331624    0.104018    1.210094
H     -5.723060    0.118702   -3.903197
H      4.884601    4.006739   -0.289082
H      6.284941    2.617246   -0.262826
