75

C     -5.935066   -0.572597   -0.494221
C     -5.877553    0.829954   -0.031625
C     -7.223327   -1.029557   -1.043070
C     -4.456046    1.143443    0.477171
C     -1.452074   -0.183834   -1.346148
C     12.172949    2.208502    0.412586
C     -0.641840   -1.386378   -0.897689
C     10.966510    2.260949    1.274457
C      1.150780   -2.700568   -1.512894
C      9.623346    0.787343    0.093339
C      1.840434   -2.524970   -0.193514
C      8.705122   -0.427467    0.308991
C      3.315182   -1.212690    0.999676
C      6.828146   -1.090668    1.474196
C      4.215150   -2.337884    1.430439
C      6.098572   -1.605434    0.274472
C    -11.073470   -0.408299   -0.620032
C    -10.440722    0.022079    0.664893
C     -8.423235   -1.073872   -0.194131
C     -3.445597    0.954937   -0.589441
C     -8.936968    0.150976    0.397024
C     -9.925290    2.180324    0.254758
N     -2.502630    0.118679   -0.424663
N    -10.774935    1.418737    0.868626
N     -8.954900    1.336759   -0.407574
O     11.960154    2.028418   -0.921929
O     -3.488148    1.663087   -1.774840
O     -9.934423    3.573608    0.229309
O      0.352997   -1.607766   -1.846889
O     10.180858    1.167438    1.287929
O      2.664246   -1.417097   -0.187746
O      7.714169   -0.059457    1.199384
O      5.223121   -2.623351    0.548977
S     -9.871576   -1.673172   -1.191171
H     -5.682177   -1.241863    0.380257
H     -5.154168   -0.794789   -1.281584
H     -6.504738    0.980022    0.850038
H     -6.156019    1.578375   -0.796372
H     -7.072696   -2.063482   -1.502128
H     -7.404444   -0.368340   -1.971897
H     -4.465548    2.210727    0.769147
H     -4.285099    0.513526    1.350509
H     -0.810123    0.700876   -1.511619
H     -1.937184   -0.382190   -2.341740
H     12.827360    1.395272    0.815388
H     12.801447    3.137892    0.555580
H     -0.240223   -1.136885    0.102438
H     -1.324225   -2.239992   -0.771637
H     10.354430    3.141250    0.917693
H     11.273626    2.499723    2.342376
H      0.628924   -3.659114   -1.543396
H      1.951167   -2.743071   -2.304591
H     10.455882    0.453081   -0.599622
H      9.099531    1.606564   -0.433984
H      1.135692   -2.560431    0.649514
H      2.510759   -3.422143   -0.066774
H      9.327039   -1.218715    0.764080
H      8.328978   -0.685462   -0.700738
H      3.844523   -0.262151    1.008498
H      2.518992   -1.131611    1.796730
H      7.398205   -1.906306    1.998053
H      6.095562   -0.654082    2.212358
H      3.646127   -3.273927    1.619254
H      4.659019   -2.062801    2.407361
H      5.662053   -0.772082   -0.293544
H      6.876310   -2.052358   -0.414859
H    -11.207532    0.389481   -1.347751
H    -12.012188   -0.925722   -0.397532
H    -10.666858   -0.618584    1.516271
H     -8.323799   -1.837742    0.630241
H     -8.536163    0.372729    1.416090
H     -8.461510    1.639649   -1.263532
H     12.581072    1.339076   -1.303595
H     -2.749087    1.661050   -2.471790
H    -10.636855    4.115314    0.698158
