51

C     -4.353157    3.265207    2.355910
C     -3.014655    3.146314    2.641407
C     -4.906075    2.289014    1.570972
C     -2.249601    2.115682    2.176813
C     -4.142793    1.219380    1.082023
C     -3.321481   -2.394007   -2.084107
C     -2.608959   -3.034341   -1.074218
C     -3.082016   -0.275797   -1.015838
C     -2.823745    1.118991    1.371136
C     -3.559547   -1.020786   -2.060855
C     -2.368033   -0.913704    0.006545
C     -2.140319   -2.271015   -0.038513
C     -1.963858    0.018206    1.044309
C      3.750882    1.271066   -0.226140
C      4.504661    0.266870   -1.021524
C      2.291299    0.900986   -0.258735
C      3.796603   -1.027539   -1.254223
C     -0.312527   -2.454061    1.544370
C      0.239891   -1.097353    1.443512
C      3.142171   -1.072326   -2.611724
C      2.150655   -0.481615    0.295259
Cl    -4.453443   -0.204110   -3.318607
N     -1.338008   -2.988107    0.917980
N     -0.786535   -0.071943    1.615653
O      3.914427    2.527560   -0.807602
O      5.750387    0.071695   -0.382597
O      1.509391    1.761682    0.513580
O      0.300199   -3.327298    2.407013
O      1.965190   -1.433190   -2.783568
O      3.918178   -0.686336   -3.697362
O      2.941494   -1.424564   -0.277555
O      0.820673   -0.865350    0.199724
H     -4.950057    4.093773    2.733035
H     -2.554932    3.915925    3.268096
H     -5.951117    2.335148    1.317789
H     -1.199298    2.092981    2.446901
H     -4.695793    0.463363    0.513308
H     -3.709904   -2.956365   -2.918279
H     -2.426586   -4.094137   -1.096951
H     -3.194446    0.789441   -0.983314
H      4.141732    1.356216    0.811574
H      4.763020    0.687684   -2.024057
H      1.971421    0.891951   -1.317816
H      4.605032   -1.817944   -1.324394
H      0.955331   -0.929455    2.269443
H      2.393708   -0.465089    1.399158
H      4.531686    3.111842   -0.301953
H      6.409599   -0.348004   -1.000891
H      1.836059    2.697687    0.429622
H     -0.011955   -4.293667    2.477401
H      3.515153   -0.460562   -4.603331
