66

C      3.430501   -2.343450    0.605976
C      3.545468   -1.393414    1.696093
C      4.283171   -2.547827   -0.536092
C      3.466929    0.069827    1.522755
C     -9.076212    0.016390   -1.627346
C     -9.251106    0.806762   -0.363493
C     -3.242128   -0.545962   -0.299675
C      0.166781    1.712956    0.782614
C     -3.460075   -0.947418    1.135501
C     -0.686219    2.600958    1.678069
C     -3.134871    1.152051    2.077763
C     -1.793677    0.835733    2.724539
C      6.738920   -0.896868   -3.116901
C      5.882753    0.217902   -2.574856
C      4.527744   -1.577539   -1.593343
C      2.181667    0.496948    0.875432
C     -7.593033   -0.189939   -1.695620
C     -7.892513    1.105584    0.144678
C     -4.585506   -0.110697   -0.834610
C      5.165157   -0.304035   -1.341659
C      7.007992    0.870074   -0.765458
N      1.394846    1.332410    1.447939
N      6.778848    1.182690   -1.988895
N      6.286782   -0.326890   -0.425053
N     -6.968687    0.235836   -0.491356
O      1.826801   -0.022005   -0.379503
O     -7.024547   -0.687465   -2.728124
O     -7.612082    1.972172    0.985893
O     -4.691774    0.303345   -2.025253
O      7.838707    1.584744    0.119585
O     -3.943987    0.058106    1.940679
O     -1.031879    1.968380    2.841137
O     -5.714648   -0.147402   -0.065733
S      5.642743   -2.324147   -2.888989
H      2.341318   -2.283368    0.171994
H      3.394762   -3.399549    1.147893
H      4.527892   -1.563887    2.294510
H      2.746875   -1.633903    2.507317
H      5.292154   -2.937197   -0.107422
H      3.921997   -3.531935   -1.062499
H      3.334180    0.466066    2.626387
H      4.297145    0.620871    1.130727
H     -9.510379   -1.004382   -1.506342
H     -9.457562    0.546161   -2.524328
H     -9.730367    0.149924    0.421031
H     -9.820308    1.742111   -0.484415
H     -2.482378    0.210032   -0.469676
H     -2.979401   -1.470391   -0.855313
H      0.389483    2.214449   -0.177819
H     -0.440319    0.819611    0.536747
H     -4.277140   -1.730022    1.109043
H     -2.572548   -1.454044    1.571341
H     -1.532313    3.034991    1.121893
H     -0.029942    3.460059    1.951526
H     -2.878198    1.511495    1.042012
H     -3.605149    1.965722    2.661996
H     -1.316824    0.013755    2.191786
H     -2.006381    0.484027    3.769808
H      7.689547   -1.010371   -2.561503
H      6.901890   -0.690154   -4.196819
H      5.212239    0.658410   -3.312836
H      3.578884   -1.367370   -2.192707
H      4.406476    0.471153   -1.128548
H      6.586960   -0.973357    0.310750
H      0.993543    0.325818   -0.825892
H      8.560996    2.197463   -0.251073
