51

C     -3.781662    3.951978    1.248757
C     -2.438116    3.808862    0.952686
C     -4.586413    2.843977    1.151465
C     -1.969888    2.583570    0.577713
C     -4.097570    1.618264    0.773664
C     -4.535578   -2.983250   -0.959007
C     -3.396790   -3.294558   -0.227018
C     -3.976688   -0.643060   -0.914590
C     -2.794609    1.448594    0.476716
C     -4.811776   -1.674030   -1.292986
C     -2.867900   -0.945302   -0.196727
C     -2.576774   -2.266914    0.143182
C     -2.084334    0.226635    0.176133
C      4.764102   -0.801192   -0.838805
C      4.721604    0.359596    0.120476
C      3.394953   -1.481448   -0.755715
C      3.629893    1.282134   -0.309455
C     -0.229369   -2.083485    0.708969
C      0.117193   -0.893251   -0.107169
C      3.012602    1.906780    0.894110
C      2.268107   -0.515657   -0.893213
Cl    -6.253849   -1.279236   -2.213911
N     -1.383639   -2.702858    0.839726
N     -0.778854    0.248263    0.168830
O      5.772184   -1.685748   -0.532348
O      5.947562    1.006542    0.071944
O      3.355728   -2.384292   -1.811307
O      0.812615   -2.657773    1.467709
O      3.794012    2.419333    1.738392
O      1.670406    1.963848    1.147128
O      2.716459    0.747011   -1.180027
O      1.414636   -0.511975    0.206974
H     -4.161281    4.929939    1.548103
H     -1.777399    4.690255    1.027046
H     -5.644242    3.002130    1.395114
H     -0.898381    2.529956    0.355089
H     -4.779825    0.801576    0.779170
H     -5.191845   -3.794462   -1.255226
H     -3.189287   -4.335131    0.029450
H     -4.131038    0.389010   -1.203832
H      4.940456   -0.395052   -1.853473
H      4.577509   -0.046761    1.143353
H      3.349539   -2.074364    0.179435
H      4.116439    2.145955   -0.854166
H     -0.030646   -1.136174   -1.163522
H      1.630120   -0.833459   -1.754578
H      5.658304   -2.490424   -1.112777
H      5.929627    1.934232    0.370326
H      2.940352   -2.018280   -2.624616
H      0.503058   -3.161579    2.301147
H      1.330289    2.251275    2.061661
