34

C     -5.169494    0.249569    1.917398
C      4.668854    2.047158    0.657461
C      1.445448    0.456663   -1.216763
C      0.022806   -0.216851   -1.031228
C     -2.124851   -0.403450    1.082005
C      5.668047   -1.145072   -1.178897
C     -4.575091   -0.747216   -1.540741
C     -4.672090   -0.242707    0.552801
C     -3.339776   -0.256438    0.255018
C      3.671984   -0.107308   -0.219207
N      6.804414   -1.016449   -1.804100
N      4.177238    0.885243    0.185603
N      2.278690   -0.316685   -0.325594
N      4.508271   -1.284562   -0.546494
N     -5.481986   -0.544605   -0.497843
N     -3.379405   -0.596525   -1.119004
O      0.397758    0.344845    1.554995
S     -0.640458    0.211354    0.491224
H     -4.670641    1.287447    2.016377
H     -6.232712    0.451085    1.895178
H     -4.766158   -0.308466    2.746117
H      5.287439    2.692698    0.008807
H      5.427495    1.765997    1.501669
H      3.942098    2.682271    1.255570
H      1.296574    1.517918   -0.832228
H      1.642699    0.467518   -2.255839
H     -0.557168    0.272099   -1.892953
H      0.244385   -1.273127   -1.245955
H     -2.023170   -1.592778    1.236883
H     -2.426829   -0.135816    2.156410
H     -4.902771   -1.007101   -2.570645
H      1.842829   -1.132124    0.255958
H      4.121064   -2.266029   -0.267857
H     -2.485492   -0.738558   -1.671669
