37

C      3.249456    1.442036    0.141027
C     -0.645682   -3.169285   -0.734806
C     -3.190334   -0.036703    1.165386
C     -2.239909    0.593347   -1.081356
C      1.688604   -2.441592   -0.140111
C      0.901642    2.282205   -0.424362
C      2.481748   -1.217120    0.109631
C     -0.330686    2.258027    0.384419
C      1.825668    1.156188   -0.158295
C      0.431130   -2.161808   -0.427651
C      1.533592   -0.130542   -0.155774
C     -0.814979    1.085710    1.060493
C      0.206255   -0.715113   -0.410240
C     -0.678229   -0.264991    0.707085
C     -1.976714    0.356451    0.369583
H      3.927280    0.793772   -0.453526
H      3.473104    2.502570   -0.099483
H      3.395720    1.229964    1.225186
H     -1.181855   -2.866368   -1.658740
H     -0.229125   -4.169670   -0.923711
H     -1.327763   -3.266485    0.139418
H     -4.138550    0.114175    0.587090
H     -3.055350   -1.114035    1.451963
H     -3.253247    0.616386    2.043983
H     -3.236518    1.078320   -1.211683
H     -2.329054   -0.396371   -1.619523
H     -1.499727    1.169427   -1.618351
H      2.049342   -3.487980   -0.104771
H      1.436450    3.268677   -0.375056
H      0.661880    2.198563   -1.529168
H      3.389047   -1.176973   -0.527343
H      2.796605   -1.251997    1.178276
H     -0.226349    3.139605    1.103444
H     -1.155051    2.671884   -0.283519
H     -1.094332    1.274806    2.155752
H     -0.115227   -0.312685   -1.401938
H     -0.728841   -1.052392    1.516673
