37

C     -2.058246    2.814287   -0.630160
C     -1.218335   -3.040062    0.805915
C      3.136231   -1.449407    0.677565
C      1.934036   -0.914880   -1.393515
C     -2.706418   -1.099712    0.474705
C      0.435739    2.261234   -0.869980
C     -2.755877    0.317592    0.040799
C      1.256973    1.936882    0.304239
C     -0.954554    1.833045   -0.569455
C     -1.496755   -1.618694    0.413074
C     -1.329204    0.607800   -0.235527
C      1.565077    0.595476    0.750137
C     -0.540404   -0.607017   -0.080433
C      0.689215   -0.519485    0.750378
C      2.061143   -0.552334    0.022668
H     -2.454554    3.068201    0.396968
H     -2.900657    2.367481   -1.207069
H     -1.752882    3.762199   -1.135654
H     -1.892210   -3.338981    1.609512
H     -0.176943   -3.134202    1.215519
H     -1.332549   -3.693688   -0.063197
H      3.347671   -1.075280    1.694676
H      4.033338   -1.313544    0.059243
H      2.805159   -2.503171    0.673710
H      1.464806   -1.944621   -1.444511
H      2.953012   -1.084630   -1.855436
H      1.390853   -0.295123   -2.075112
H     -3.618996   -1.646148    0.814410
H      0.378502    3.397588   -0.889366
H      0.796904    1.998486   -1.850835
H     -3.153979    0.918331    0.886170
H     -3.392553    0.404019   -0.867574
H      0.760715    2.509509    1.154135
H      2.233406    2.502479    0.177311
H      2.130680    0.720051    1.750903
H     -0.288854   -0.950463   -1.136321
H      0.650511   -1.233221    1.632108
