129

C    -12.310877    2.250759   -0.221873
C    -11.143456    2.235814    0.688765
C    -13.211106    1.063267   -0.016782
C    -10.184826    1.113851    0.584573
C     15.196828   -0.719982   -1.647862
C     -9.662400   -1.184778   -1.113762
C     15.382964   -2.018975   -0.902443
C     -8.174396   -1.285151   -0.679686
C     14.773975   -1.112897    1.117696
C     -6.865339   -2.878293    0.449098
C     13.452604   -1.790099    1.243850
C     -6.237113   -1.960499    1.457107
C     12.233391    0.180530    1.403471
C     -5.431078    0.170646    1.778722
C     11.494206   -0.060860    0.115031
C     -4.074186   -0.158254    2.296792
C      9.441627   -0.083732    1.064662
C     -3.124826   -1.182371    0.412419
C      8.135581   -0.831334    1.207610
C     -1.868857   -1.070258   -0.443868
C      6.326468   -1.598466    0.014468
C     -0.411749   -0.514754    1.309957
C      5.310421   -0.709805    0.690747
C     -0.148454    0.931098    1.093880
C      5.988213    1.359852   -0.191400
C      0.864744    0.754980   -0.981278
C      5.546013    2.677148   -0.805468
C      2.136459    1.172335   -1.750955
C      3.465887    3.271587    0.208581
C      2.402158    3.321105   -0.820155
C    -15.038923   -0.037788   -3.317549
C    -15.312872   -0.783245   -2.042865
C    -14.392566    1.228396   -0.968953
C    -10.680129   -0.230221    0.842201
C     16.459651    0.065910   -1.609758
C    -15.398309    0.143686   -0.896094
C    -14.166862   -1.718688   -0.408575
N     17.476884    2.092698   -0.941916
N    -10.439179   -1.215025    0.087390
N    -14.338226   -1.742419   -1.678440
N    -14.999732   -0.748277    0.206078
N     16.416608    1.226448   -1.067627
O    -11.456821   -0.467977    1.973798
O     17.649683   -0.403246   -2.126347
O    -13.284028   -2.524216    0.336455
O     15.722224   -1.808763    0.410175
O     -8.053975   -2.460941   -0.020337
O     12.578828   -1.024728    1.968306
O     -5.996866   -0.725734    0.913687
O     10.319763   -0.785160    0.282475
O     -3.076108   -0.271099    1.396055
O      7.593542   -1.007781   -0.062909
O     -0.734071   -1.294530    0.261337
O      5.043198    0.471588    0.101973
O      0.895411    1.200991    0.291716
O      4.733911    3.442969   -0.117503
O      2.323763    2.495780   -1.846938
S    -13.847526    1.214530   -2.698002
H    -12.883392    3.216528   -0.099903
H    -11.982455    2.228807   -1.312278
H    -10.605497    3.238537    0.616568
H    -11.548875    2.273481    1.748679
H    -12.671259    0.187166   -0.401279
H    -13.554616    1.020250    1.010764
H     -9.295681    1.337356    1.264861
H     -9.715489    1.151040   -0.444677
H     14.994288   -0.989686   -2.719777
H     14.345641   -0.138074   -1.315208
H     -9.820829   -0.308879   -1.756284
H     -9.842292   -2.115858   -1.736808
H     14.456034   -2.629520   -0.977356
H     16.184454   -2.641153   -1.387805
H     -7.988144   -0.427030    0.025696
H     -7.606221   -1.214527   -1.603386
H     15.143408   -0.945114    2.174531
H     14.678637   -0.095635    0.671471
H     -6.124895   -3.075759   -0.389409
H     -7.020556   -3.898475    0.899368
H     13.591860   -2.769738    1.792973
H     12.996413   -2.093103    0.279163
H     -5.293140   -2.451919    1.788440
H     -6.939493   -1.869906    2.347373
H     13.093297    0.865309    1.206613
H     11.617679    0.764848    2.147495
H     -5.327718    1.141616    1.205917
H     -6.140946    0.449751    2.609788
H     12.142974   -0.529337   -0.650065
H     11.162342    0.943851   -0.306005
H     -3.799355    0.643138    3.027894
H     -4.092863   -1.112532    2.911858
H      9.805535    0.133671    2.095573
H      9.172504    0.911033    0.601909
H     -3.171359   -2.253559    0.770819
H     -4.011149   -1.073154   -0.252309
H      8.373512   -1.845942    1.644222
H      7.496231   -0.260424    1.902546
H     -1.968041   -1.933295   -1.176206
H     -1.877907   -0.167597   -1.054718
H      6.442734   -2.539099    0.586269
H      6.014970   -1.828548   -1.021323
H     -1.034144   -0.630275    2.231474
H      0.604367   -0.931620    1.685913
H      4.349988   -1.314573    0.669994
H      5.512446   -0.569290    1.764812
H     -0.009575    1.398311    2.125475
H     -1.093100    1.472599    0.743642
H      6.720048    0.871247   -0.912816
H      6.621994    1.573833    0.718942
H      0.879353   -0.347348   -1.016594
H     -0.007694    1.098349   -1.577054
H      6.519637    3.238874   -0.978010
H      5.232201    2.416015   -1.848644
H      1.894938    0.804334   -2.810600
H      2.941241    0.523943   -1.432069
H      3.352122    2.346081    0.847497
H      3.190841    4.091032    0.963910
H      2.389047    4.395277   -1.231834
H      1.404523    3.327689   -0.258152
H    -14.590374   -0.689164   -4.066379
H    -15.961290    0.479256   -3.606648
H    -16.313686   -1.281399   -2.132968
H    -14.908886    2.203634   -0.815982
H    -16.437207    0.521741   -0.708279
H     17.585641    2.723940   -0.097554
H     18.202900    2.149066   -1.679533
H    -15.299316   -0.631800    1.187922
H    -11.399966   -1.327816    2.518932
H     18.493577    0.174158   -2.100567
H    -12.570121   -3.060236   -0.141654
