39

C      3.017868    2.004970    0.833872
C      4.311433    0.032522    0.245423
C     -2.120267    2.144822   -0.238711
C     -0.927288   -0.350215   -2.033583
C     -2.570348   -1.317099    1.013436
C     -3.018066    0.127610    0.945260
C      1.641315   -0.860792   -0.761113
C     -2.001052   -1.700782   -0.321078
C      0.418057   -1.767988   -0.575649
C      0.561166    0.566687    0.872012
C      3.009346    0.727506    0.567107
C     -1.826944    1.054606    0.767111
C      1.817334   -0.145129    0.546728
C     -0.612197    0.248424    0.354231
C     -0.787143   -0.859573   -0.606280
H      2.134834    2.581065    1.073884
H      3.975282    2.550283    0.819021
H      5.111180    0.592817    0.725423
H      4.275566   -1.037399    0.494255
H      4.421430    0.104440   -0.857306
H     -2.576208    3.035249    0.241632
H     -2.858096    1.790581   -1.011800
H     -1.221511    2.490046   -0.774253
H     -1.987755   -0.241114   -2.332788
H     -0.438593   -1.022950   -2.766370
H     -0.436611    0.638041   -2.145683
H     -1.744529   -1.371398    1.758791
H     -3.435042   -1.926600    1.297068
H     -3.744737    0.261959    0.116716
H     -3.567750    0.341076    1.886906
H      2.536312   -1.454897   -1.028923
H      1.391125   -0.098494   -1.527164
H     -2.761230   -1.642582   -1.131153
H     -1.744273   -2.793632   -0.252747
H      0.374998   -2.566918   -1.309823
H      0.482742   -2.171156    0.473111
H      0.573431    1.407458    1.581544
H     -1.659246    1.556976    1.741320
H      1.985464   -0.928422    1.319572
