38

C      3.822393   -0.876821    0.871194
C      3.826940    1.382588    0.001908
C     -5.451102   -0.464512   -1.092043
C     -2.131279    1.003963    3.124137
C      2.192064   -0.536891   -2.459556
C     -1.179345   -0.582973   -1.435763
C     -2.560199   -0.553500   -1.351458
C     -1.010312    0.181993    0.763158
C      1.747579    0.375781    0.732125
C     -0.367322   -0.217222   -0.383782
C     -3.190021   -0.159543   -0.219076
C     -2.405176    0.220000    0.871706
C      1.127791   -0.248018   -0.492048
N      3.160653    0.368253    0.744652
O     -4.560630   -0.100917   -0.050773
O     -2.967527    0.630687    2.051021
O      1.496095    0.369215   -1.673783
H      4.419563   -1.189898    0.002411
H      4.558921   -0.778128    1.724676
H      3.096793   -1.643650    1.217396
H      4.151354    2.179068    0.731256
H      4.759259    0.998264   -0.476495
H      3.196385    1.912270   -0.738196
H     -5.591468   -1.562203   -1.158891
H     -6.470276   -0.033650   -0.920253
H     -5.060716   -0.066754   -2.063819
H     -2.791520    1.426272    3.916838
H     -1.403009    1.793309    2.822667
H     -1.603369    0.083662    3.485218
H      3.109543   -0.910274   -1.974665
H      2.488259   -0.086675   -3.438109
H      1.604563   -1.442861   -2.723280
H     -0.690679   -0.902380   -2.354891
H     -3.168112   -0.848106   -2.197477
H     -0.423943    0.479123    1.608290
H      1.352117    1.381926    0.963499
H      1.422280   -0.287995    1.591763
H      1.493454   -1.293401   -0.519136
