40

C      3.802409    1.135569    0.484863
C      3.843649   -1.043943   -0.519113
C     -0.749511   -2.995103    0.299957
C     -1.377366    1.321521    1.646260
C     -3.395644   -0.184315    0.324675
C     -2.833285   -1.559286    0.236017
C     -2.498580    0.741207   -0.448006
C      0.913839   -0.804011    0.325337
C      1.111006    1.619529    0.065852
C      3.125867    0.186816   -0.113818
C     -1.370693   -1.623997    0.273190
C      1.681462    0.299804   -0.400901
C     -0.538039   -0.584114    0.286298
C     -0.289126    1.735562   -0.506812
C     -1.160263    0.773295    0.260440
O     -0.774979    3.023891   -0.299677
H      3.356032    2.084560    0.822573
H      4.859939    0.993966    0.664892
H      3.203428   -1.937623   -0.517125
H      4.235299   -0.861493   -1.560941
H      4.736491   -1.197073    0.137098
H      0.013464   -3.032513    1.127351
H     -0.310916   -3.241203   -0.682025
H     -1.485390   -3.778458    0.542976
H     -2.407698    1.775468    1.737252
H     -0.681528    2.131093    1.917160
H     -1.294018    0.480484    2.357668
H     -3.518757    0.092103    1.379165
H     -4.411404   -0.130887   -0.159363
H     -3.194018   -2.015943   -0.724570
H     -3.251354   -2.225332    1.039207
H     -2.331939    0.299417   -1.450368
H     -2.877198    1.772782   -0.512845
H      1.252319   -0.810906    1.378219
H      1.162064   -1.760169   -0.195803
H      1.745113    2.449501   -0.325712
H      1.145472    1.638887    1.155290
H      1.500052    0.183493   -1.491260
H     -0.231521    1.464717   -1.571275
H     -0.704677    3.582705   -1.103534
