40

C      3.648781   -0.066129    1.318943
C      3.717392    1.093316   -0.813517
C     -1.085536    2.849215   -0.167075
C     -1.749706   -1.519412   -1.126094
C     -3.368762   -0.111094    0.709569
C     -2.975421    1.243204    0.263463
C     -2.211056   -0.903379    1.229826
C      0.766752    0.763904   -0.282937
C     -0.087699   -1.912975    0.600873
C      3.053703    0.194919    0.183923
C     -1.522263    1.429092    0.019576
C      1.706542   -0.404049   -0.138630
C     -0.655721    0.425205   -0.032319
C      1.235103   -1.282646    0.958187
C     -1.139906   -0.962477    0.160646
O      2.144056   -2.376587    1.009517
H      3.253312   -0.701552    2.105046
H      4.637434    0.396536    1.497688
H      3.751974    2.107225   -0.380984
H      4.775470    0.742035   -0.925251
H      3.182170    1.092372   -1.779064
H     -0.191543    2.934597   -0.801670
H     -1.882588    3.452635   -0.665232
H     -0.948984    3.280363    0.847741
H     -2.511260   -0.853650   -1.542336
H     -2.124784   -2.534326   -0.876505
H     -0.920907   -1.661006   -1.855122
H     -3.927620   -0.677456   -0.083880
H     -4.112683   -0.037793    1.557969
H     -3.486081    1.551767   -0.694790
H     -3.292816    1.995352    1.016763
H     -2.493033   -1.889863    1.599185
H     -1.764228   -0.306607    2.071923
H      1.087849    1.539481    0.470259
H      0.920798    1.157785   -1.322258
H      0.123564   -2.708600   -0.165573
H     -0.407823   -2.492084    1.510655
H      1.750431   -0.966934   -1.087500
H      1.221082   -0.809692    1.937456
H      1.884007   -3.070694    0.365349
