42

C      4.217976    0.400328    0.112635
C      2.884386   -1.479081   -0.641873
C     -1.225769    2.596533   -1.088907
C     -1.131073   -2.058906   -0.475330
C     -3.159692   -0.324627    0.269770
C     -2.922202    1.066526   -0.273265
C      1.225650   -0.170268    1.715869
C     -2.054774   -0.668010    1.260978
C      0.305717   -1.276553    1.312689
C      2.988531   -0.145432    0.009654
C     -1.491098    1.513001   -0.062449
C      1.791735    0.589178    0.550198
C     -0.534238    0.360016   -0.429227
C      0.849290    0.853857   -0.546944
C     -0.785117   -0.843150    0.403270
O      1.405513    0.474439   -1.793824
H      4.292615    1.362980    0.582987
H      5.056177   -0.129477   -0.267456
H      3.085878   -2.304672    0.080553
H      1.952976   -1.668997   -1.169221
H      3.703665   -1.561659   -1.398016
H     -0.653650    3.441606   -0.652653
H     -0.750523    2.188133   -2.003371
H     -2.193842    3.057758   -1.440580
H     -1.447557   -1.712978   -1.490229
H     -0.185260   -2.614604   -0.637088
H     -1.848335   -2.725328    0.008118
H     -3.128376   -1.038766   -0.553332
H     -4.136483   -0.397554    0.756436
H     -3.159717    1.130403   -1.355234
H     -3.586318    1.760166    0.271932
H      2.053478   -0.624196    2.315220
H      0.687325    0.504698    2.405312
H     -2.299543   -1.666208    1.673406
H     -1.930181    0.108029    2.015985
H     -0.144114   -1.681812    2.263591
H      0.829385   -2.145575    0.872736
H     -1.288707    1.916333    0.926461
H      2.193128    1.548449    0.992110
H     -0.885052    0.110115   -1.479351
H      0.778657    1.985436   -0.657469
H      0.639541    0.269867   -2.384090
