40

C      3.860375   -0.582136   -0.869141
C      3.225759    1.302776    0.453769
C     -0.900093    2.586173   -1.228614
C     -0.862069   -2.353680   -0.255446
C     -3.531191    0.083865    0.003636
C     -2.831279    1.291991   -0.409545
C     -2.668039   -0.959316    0.638630
C      0.593079    0.332690   -0.909149
C     -0.382615   -0.587195    1.446351
C      2.879048    0.023580   -0.213676
C     -1.592453    1.301471   -0.806478
C      1.505450   -0.564084   -0.160497
C     -0.868378    0.004937   -0.841711
C      1.068861   -0.851068    1.245841
C     -1.231925   -0.943235    0.235327
O      1.770692   -0.055210    2.178386
H      3.650687   -1.534281   -1.380276
H      4.852395   -0.169809   -0.914838
H      3.712002    2.004375   -0.245687
H      4.004005    1.051755    1.228526
H      2.358652    1.815433    0.894568
H     -0.178490    2.405192   -2.028762
H     -0.477189    3.048321   -0.318023
H     -1.690416    3.258797   -1.619299
H     -1.771570   -3.026538   -0.204811
H     -0.127714   -2.835716    0.398630
H     -0.601171   -2.348573   -1.333210
H     -4.355046    0.377309    0.688781
H     -4.050699   -0.329656   -0.904515
H     -3.381803    2.243693   -0.385045
H     -3.134563   -1.944896    0.419536
H     -2.765388   -0.844479    1.740858
H      0.781458    1.386051   -0.545041
H      0.922562    0.358263   -1.973010
H     -0.500719    0.529660    1.567300
H     -0.808574   -1.058801    2.335287
H      1.553781   -1.534431   -0.694090
H     -1.149036   -0.479678   -1.818225
H      1.357655   -1.908443    1.520413
H      1.763958   -0.495104    3.063251
