38

C      3.825453    0.094279    1.332561
C      3.694133    0.256221   -1.074267
C     -1.075227    2.812577    0.061922
C     -1.194812   -1.510117    1.334097
C     -3.451765   -0.175290   -0.338232
C     -2.999069    1.160431    0.090266
C     -2.401416   -1.118973   -0.785600
C      0.793058    0.761905   -0.095988
C      1.332191   -1.681234   -0.336597
C      3.075937   -0.020223    0.249601
C     -1.554089    1.402952    0.033321
C      1.644945   -0.419633    0.386200
C     -0.636487    0.458876   -0.041974
C     -0.063540   -1.721387   -0.838351
C     -1.084189   -0.953706   -0.072035
O     -0.333599   -2.360409   -1.832915
H      3.426793   -0.094657    2.315975
H      4.858126    0.382987    1.229669
H      3.693217    1.359968   -1.243601
H      3.194706   -0.264628   -1.897446
H      4.771086   -0.040377   -1.009924
H     -0.396449    2.996928   -0.816358
H     -0.593345    3.077182    1.021398
H     -1.914275    3.526956   -0.072808
H     -0.913700   -0.716765    2.057090
H     -0.557923   -2.406767    1.422612
H     -2.242382   -1.847726    1.517845
H     -4.208688   -0.089594   -1.171823
H     -4.044491   -0.635878    0.505725
H     -3.487009    1.952736   -0.550067
H     -3.343224    1.413313    1.135092
H     -2.208528   -1.040063   -1.875801
H     -2.740736   -2.159150   -0.600595
H      1.106949    1.620046    0.513601
H      1.138816    0.968023   -1.137935
H      1.452036   -2.588874    0.315700
H      2.032999   -1.856886   -1.190213
H      1.404497   -0.543043    1.459854
