36

C     -2.820557   -1.885664    1.184801
C     -0.923423    2.900228    0.322767
C      2.185890   -0.712809   -1.406166
C      3.484392    0.729840    0.184757
C     -0.408555   -2.104880    1.188065
C      1.024907   -1.866221    0.895249
C     -2.035347    2.114358   -1.673169
C     -2.539364   -0.150426   -0.836690
C     -1.453284   -1.444309    0.737016
C     -1.064879    1.944339   -0.532251
C     -1.398730   -0.307936   -0.162693
C      1.389200   -0.468737    1.077784
C     -0.323908    0.670774   -0.433831
C      0.858634    0.645260    0.386786
C      2.186801    0.077737   -0.146721
O     -2.725008    0.871550   -1.758005
H     -2.672684   -2.454307    2.124274
H     -3.477268   -1.034345    1.404422
H     -3.250332   -2.594575    0.444449
H     -0.279834    2.935279    1.184655
H     -1.519657    3.834311    0.202771
H      2.561762   -0.032656   -2.212125
H      1.239576   -1.112570   -1.750682
H      2.941435   -1.552981   -1.385374
H      3.368867    1.365972    1.109856
H      4.215821   -0.054505    0.472733
H      3.857339    1.321100   -0.651992
H     -0.678779   -2.915481    1.852542
H      1.586572   -2.524748    1.600103
H      1.298493   -2.309048   -0.114747
H     -1.494456    2.247301   -2.623760
H     -2.782993    2.884699   -1.459668
H     -3.328899   -0.862020   -0.634572
H      1.888535   -0.272090    2.083390
H     -0.017603    0.456184   -1.511679
H      1.107333    1.661378    0.837702
