40

C     -3.462438   -1.451884    0.239914
C     -1.599467   -2.534904   -1.096631
C      3.066462   -2.541806    0.357523
C      0.695986    3.270416    0.702821
C      2.849907   -0.278505   -0.802604
C      2.228225    0.951253   -0.150535
C      0.869193   -1.427685   -0.033788
C     -1.927978    0.722532    0.801250
C     -2.085494   -1.404553   -0.291605
C      2.196972   -1.457661   -0.136188
C      0.137035    1.898077    0.686414
C      0.747918    1.004519   -0.375443
C     -1.325702   -0.372597   -0.038262
C      0.060817   -0.299645   -0.557337
C     -1.340251    2.010597    0.273813
O     -1.935262    3.133118    0.813471
H     -4.061766   -0.672937   -0.299478
H     -3.960232   -2.418983    0.015924
H     -3.528130   -1.193048    1.321275
H     -2.383008   -2.877341   -1.843099
H     -0.696989   -2.367497   -1.681079
H     -1.501954   -3.442822   -0.425118
H      3.635937   -2.213710    1.260811
H      3.852811   -2.749234   -0.415783
H      2.526290   -3.464772    0.602886
H     -0.084886    3.959941    1.124297
H      1.529521    3.299113    1.442514
H      0.975860    3.671543   -0.272563
H      3.936844   -0.254704   -0.635886
H      2.603373   -0.303944   -1.863278
H      2.488417    0.964805    0.935828
H      2.699705    1.826340   -0.621292
H      0.381351   -2.252472    0.448117
H     -1.515856    0.556182    1.833717
H     -3.018161    0.702427    0.780304
H      0.245525    1.388176    1.654137
H      0.608049    1.593118   -1.337859
H     -0.026491   -0.509883   -1.672492
H     -1.420874    1.976928   -0.833605
H     -2.461261    3.561501    0.088907
