40

C     -3.589759   -1.066075   -0.073594
C     -1.934050   -2.187372    1.519547
C      0.492898    2.965431   -1.228101
C      2.643136   -2.732774   -0.536530
C     -1.494209    2.129009   -0.132966
C     -1.743427    0.806063   -0.873845
C      0.720974   -1.408513    0.185643
C      1.927611    0.847048   -0.579147
C     -2.205548   -1.121197    0.523645
C     -0.016252    2.285586    0.044797
C      2.009397   -1.487051   -0.077108
C     -1.339892   -0.220882    0.129304
C      0.762547    1.083733    0.401501
C      0.026618   -0.183205    0.652141
C      2.790692   -0.225996    0.108976
O      2.826778    0.044400    1.465267
H     -3.546568   -1.181271   -1.158614
H     -4.016701   -0.068427    0.213483
H     -4.205053   -1.860383    0.384017
H     -1.866617   -3.164339    0.988170
H     -2.794797   -2.287334    2.226346
H     -1.020571   -2.064990    2.102047
H      1.331843    3.670522   -0.982835
H      0.838967    2.258364   -1.977377
H     -0.297949    3.596446   -1.684777
H      2.376907   -2.942930   -1.597263
H      3.752512   -2.689598   -0.405834
H      2.306696   -3.607165    0.081735
H     -2.020518    2.120093    0.844852
H     -1.883855    2.915143   -0.806435
H     -2.779823    0.710394   -1.208296
H     -1.023924    0.746168   -1.708631
H      0.141797   -2.305505    0.043237
H      1.589418    0.417839   -1.519902
H      2.560317    1.738944   -0.657903
H      0.086649    3.106043    0.823330
H      1.331952    1.331285    1.353099
H     -0.071267   -0.320046    1.772197
H      3.772144   -0.312264   -0.364947
H      3.560931    0.664803    1.710770
