38

C      3.616618   -0.607529   -0.073214
C      1.759848   -2.309343   -0.468552
C     -2.842781   -2.783265    0.559341
C     -0.313419    2.914715   -0.572178
C      0.957953    2.085902    1.343454
C      1.779088    1.361875    0.344304
C     -0.797903   -1.430437    0.481653
C     -2.826050   -0.495518   -0.583996
C      2.146672   -0.930626   -0.135811
C     -2.083618   -1.581025    0.173985
C     -0.446719    2.243265    0.753037
C      1.225562    0.008562    0.066109
C     -0.190290   -0.161385    0.015115
C     -2.351696    0.834290   -0.042533
C     -1.061190    0.895918    0.679123
O     -3.017109    1.820302   -0.199572
H      3.878865    0.223171   -0.770932
H      4.204023   -1.468006   -0.400340
H      3.949507   -0.335022    0.928160
H      2.592497   -2.705870   -1.138150
H      0.808345   -2.382084   -1.036487
H      1.803351   -2.963050    0.416002
H     -3.345988   -2.657799    1.550660
H     -2.221790   -3.716515    0.532132
H     -3.654189   -2.952673   -0.178440
H     -0.196203    2.169083   -1.384832
H      0.502901    3.661453   -0.543267
H     -1.259856    3.459906   -0.781776
H      0.884610    1.471772    2.277197
H      1.346940    3.095157    1.520299
H      2.863518    1.348097    0.581733
H      1.683617    1.955771   -0.621763
H     -0.273411   -2.162493    1.033505
H     -3.900339   -0.626149   -0.477176
H     -2.462884   -0.574233   -1.629425
H     -1.018744    2.855993    1.465842
H     -0.487350   -0.102715   -1.090521
H     -1.252386    0.540504    1.743341
