40

C      2.001138   -2.125558   -0.393825
C      3.541947   -0.131693   -0.613330
C     -1.394867    3.103209   -0.319177
C     -1.832401   -3.336485   -0.007805
C      0.897289    2.333992   -0.212068
C      1.862839    1.568758    0.626999
C     -0.379455   -1.544963    0.824353
C     -1.727239    0.473570   -0.597630
C      2.205174   -0.693003   -0.120807
C     -0.444779    2.233355    0.480494
C     -1.458924   -1.901712    0.121005
C      1.395973    0.104864    0.469553
C     -0.964094    0.852916    0.651170
C      0.075642   -0.186551    1.015388
C     -2.299070   -0.902460   -0.538054
O     -3.590070   -0.910273   -0.004121
H      2.794314   -2.461109   -1.167006
H      1.068779   -2.380645   -0.916845
H      2.228670   -2.794051    0.473722
H      4.074690   -0.886116   -1.237158
H      3.278546    0.703584   -1.279813
H      4.166521    0.151289    0.246070
H     -1.322436    2.878344   -1.387965
H     -1.017794    4.155738   -0.193437
H     -2.421362    3.088092    0.075392
H     -2.799734   -3.524792    0.517294
H     -2.066829   -3.495032   -1.101207
H     -1.045629   -4.018142    0.352162
H      1.176295    3.403447   -0.209134
H      0.884389    1.899142   -1.229571
H      2.899590    1.651658    0.402777
H      1.637817    1.814149    1.689306
H      0.153978   -2.363032    1.289773
H     -1.143885    0.666492   -1.528115
H     -2.601551    1.187980   -0.644886
H     -0.315089    2.761823    1.467555
H     -1.703529    0.864444    1.479242
H      0.218715   -0.083331    2.153448
H     -2.429515   -1.242260   -1.608341
H     -3.604053   -0.915636    0.974591
