41

C     -3.928111    0.788863    0.563274
C     -3.251431   -1.421121   -0.400045
C      1.557750   -2.341875    1.530116
C      1.543283    0.355139   -2.067830
C      3.525652    0.498783   -0.172911
C      3.288120   -0.821958    0.459743
C      2.344499    1.410563   -0.024964
C      0.023818    1.700128   -0.710678
C     -1.332644    1.018272   -0.835350
C     -2.916365   -0.342120    0.569813
C      1.867235   -1.158310    0.686124
C      0.862275   -0.465807    0.181679
C     -0.516965   -0.847789    0.442808
C      1.156213    0.720187   -0.663244
C     -1.555306    0.243699    0.412282
O     -0.778703   -2.038044    0.676535
O     -1.281265    1.058216    1.507120
H     -3.637439    1.525560    1.330508
H     -3.937571    1.209769   -0.456600
H     -4.921168    0.394796    0.869252
H     -3.140925   -2.441899    0.070518
H     -4.356277   -1.346287   -0.609722
H     -2.677762   -1.409233   -1.333121
H      2.477241   -2.686261    2.088997
H      1.218047   -3.211935    0.964566
H      0.862274   -2.013671    2.334988
H      0.660016    0.288778   -2.738872
H      2.170317    1.194389   -2.488043
H      2.149474   -0.573524   -2.109237
H      3.800070    0.357644   -1.242192
H      4.424127    0.984414    0.293878
H      3.783051   -0.836011    1.459082
H      3.753058   -1.673803   -0.102041
H      2.501721    2.400664   -0.450265
H      2.107328    1.454492    1.077041
H     -0.017221    2.325673    0.201463
H      0.134861    2.362975   -1.577318
H     -2.070421    1.831932   -0.992852
H     -1.278508    0.335707   -1.716641
H     -2.968410   -0.786330    1.596962
H     -1.643940    1.955335    1.375180
