40

C      1.870500    2.084704    0.419120
C      3.509059    0.189422    0.193919
C     -2.122790    3.372023   -0.074630
C     -1.170862   -3.258852   -0.642513
C      0.971637   -2.360801    0.022059
C      1.683654   -1.485051   -0.954526
C     -0.635665    1.537135   -0.790185
C     -2.538721    0.933986    0.573198
C      2.094860    0.697106   -0.028550
C     -1.703726    1.929483   -0.134851
C     -0.482620   -2.138048    0.160449
C      1.243818   -0.074741   -0.562431
C     -0.171766    0.144917   -0.887788
C     -1.643981   -0.188587    1.008879
C     -1.077304   -0.867675   -0.243961
O     -0.625170    0.227644    1.863986
H      2.012935    2.841984   -0.397051
H      0.916867    2.288254    0.900588
H      2.673664    2.392649    1.166354
H      4.015122   -0.040252   -0.753240
H      3.453917   -0.765434    0.779390
H      4.097858    0.872888    0.815603
H     -1.206309    3.983010   -0.202416
H     -2.687023    3.609024    0.831590
H     -2.736912    3.535401   -0.998295
H     -0.856908   -4.253351   -0.282480
H     -0.874902   -3.161498   -1.705712
H     -2.267558   -3.118697   -0.597858
H      1.226722   -3.425502   -0.258258
H      1.495232   -2.226321    1.015441
H      2.756355   -1.616389   -0.914517
H      1.301877   -1.711927   -1.971375
H     -0.087606    2.360341   -1.298610
H     -3.259796    0.500920   -0.161845
H     -3.072590    1.365347    1.443272
H     -0.743284   -2.409802    1.229803
H     -0.201015   -0.058147   -2.024394
H     -2.237651   -0.945391    1.567703
H     -1.953452   -0.992712   -0.914986
H     -0.966467    0.232941    2.809116
