39

C      3.237320   -2.114993   -0.044938
C      0.801558    3.193917    1.632825
C     -3.178754    0.471545    1.168300
C     -3.284079   -0.745081   -1.040704
C      1.842552    0.845386   -0.924315
C      1.835038   -0.532165   -1.519159
C      1.502595    0.929921    0.517901
C      0.835123   -2.233785   -0.130362
C     -0.512670   -1.831731   -0.581693
C     -0.763257    1.722990    0.409312
C      1.903556   -1.626104   -0.570108
C      0.468607    1.946480    0.840691
C     -1.084238   -0.763722    0.332267
C     -1.082662    0.518497   -0.355149
C     -2.418619   -0.174536    0.026015
H      3.529321   -1.503138    0.829521
H      3.998609   -2.130538   -0.846157
H      3.149784   -3.160997    0.330346
H      1.691982    3.044865    2.258566
H      0.998134    3.994408    0.868627
H     -0.070960    3.534590    2.205482
H     -4.071431   -0.142457    1.353043
H     -2.554568    0.395290    2.094481
H     -3.372709    1.535448    1.007430
H     -4.142967   -0.033527   -1.210742
H     -2.779186   -0.878755   -2.012021
H     -3.688109   -1.720238   -0.698413
H      1.190757    1.543603   -1.528009
H      2.866549    1.289317   -1.072147
H      2.767291   -0.621654   -2.173673
H      1.019385   -0.566792   -2.269014
H      2.416780    1.228762    1.117569
H      1.257403   -0.068222    0.931925
H      0.881812   -3.073508    0.596189
H     -0.539925   -1.591360   -1.639326
H     -1.242315   -2.699508   -0.473111
H     -1.536890    2.460859    0.638310
H     -0.909821   -0.948553    1.391268
H     -0.960997    0.505485   -1.461028
