45

C     -4.272205   -1.159614    0.316202
C     -3.121191    0.478518    1.913848
C      0.605030    3.350665   -1.886289
C      1.535199   -2.218658   -0.776659
C      4.500054   -0.719106    2.406418
C     -0.802846   -1.924067   -1.318088
C     -2.008291   -1.037077   -1.376646
C     -0.750790    1.592984   -0.921928
C      1.300490    2.072590    0.223873
C     -3.097671   -0.311231    0.662275
C      0.346064    2.319257   -0.872796
C      0.446332   -1.192248   -1.008720
C      3.691076   -0.297474    1.239922
C     -2.050226   -0.257271   -0.125223
C     -0.874532    0.572431    0.190674
C      1.610605    0.601313    0.235926
C      0.379411   -0.278412    0.173270
O      4.200019   -0.390828    0.115632
O      2.420177    0.189443    1.304007
H     -3.905594   -2.218712    0.315405
H     -4.674199   -0.894249   -0.675615
H     -5.079354   -1.070171    1.040999
H     -2.915886    1.548479    1.766777
H     -2.400580   -0.009515    2.616135
H     -4.132224    0.419704    2.398590
H      0.940319    4.273927   -1.363023
H     -0.306417    3.621213   -2.458889
H      1.429414    3.018887   -2.560418
H      2.452295   -1.933867   -1.326977
H      1.762465   -2.244962    0.306879
H      1.211075   -3.235936   -1.085915
H      5.337195    0.004023    2.519064
H      4.910731   -1.729427    2.320409
H      3.868835   -0.586892    3.327801
H     -0.689517   -2.388699   -2.327527
H     -0.985982   -2.775945   -0.624345
H     -2.927795   -1.582151   -1.596867
H     -1.844253   -0.311341   -2.217645
H     -1.515295    1.702389   -1.689404
H      0.811831    2.429712    1.148268
H      2.241271    2.603025    0.001328
H      0.735276   -0.600749   -1.911908
H     -0.928445    1.059623    1.172364
H      2.226833    0.435339   -0.681171
H      0.321298   -0.924917    1.089986
