39

C      2.892290   -1.969437   -0.654157
C      4.295503   -0.265438    0.332374
C     -1.950976    2.358319    0.671059
C     -1.912937   -2.462204    0.543792
C      0.400627    1.758473    0.845259
C     -2.934651   -0.654570   -0.714220
C      1.633482    1.223893    0.151413
C     -2.443438    0.637673   -1.309758
C      0.502677   -0.943229    0.223550
C      2.969525   -0.865968    0.055692
C     -0.751468    1.914887   -0.116001
C     -1.700944   -1.525125   -0.613592
C      1.749638   -0.227578    0.575815
C     -0.977240    0.712288   -0.981063
C     -0.608878   -0.562784   -0.408925
H      3.787559   -2.451763   -1.043622
H      1.922625   -2.401693   -0.853350
H      4.968403   -1.037313    0.758692
H      4.248093    0.574938    1.045415
H      4.779130    0.100627   -0.586974
H     -1.560338    2.946965    1.554628
H     -2.519420    3.127616    0.092789
H     -2.563096    1.556108    1.076224
H     -1.808374   -1.934265    1.496876
H     -2.960759   -2.822229    0.471849
H     -1.272372   -3.362850    0.499699
H      0.677654    2.749563    1.257916
H      0.081409    1.119560    1.697435
H     -3.426846   -0.527766    0.270358
H     -3.702625   -1.145667   -1.367391
H      1.526080    1.241478   -0.953886
H      2.549926    1.740944    0.451287
H     -2.623983    0.579583   -2.405262
H     -3.054600    1.441479   -0.896727
H      0.538267   -1.991930    0.571322
H     -0.483757    2.759669   -0.785161
H     -1.626435   -2.063977   -1.581917
H      1.790432   -0.204301    1.704400
H     -0.430185    0.876022   -1.945625
