43

C      2.599371    0.219008   -1.658940
C      2.355559    1.898816    0.083064
C     -1.782071   -1.774440    1.006541
C     -0.998973    2.432819    0.953296
C     -2.454667   -0.165797   -1.374766
C      1.741745   -1.753954    0.020912
C     -1.383861   -1.200355   -1.346091
C     -2.069228    1.160994   -0.812939
C      0.366060   -2.294331    0.043841
C      0.707714   -0.014398    1.501990
C      1.945047   -0.430351    0.680457
C      1.797881    0.617735   -0.433171
C     -0.739578   -1.275865    0.042588
C     -1.393595    1.032437    0.558491
C     -0.253750    0.114061    0.356151
O     -2.357599    0.621736    1.440756
O      0.477166    0.601280   -0.723627
H      2.949159    1.176809   -2.148182
H      1.963018   -0.265520   -2.436307
H      3.510619   -0.337138   -1.420322
H      1.737174    2.780704   -0.063423
H      3.353635    2.137929   -0.392815
H      2.604339    1.842003    1.184162
H     -1.553445   -1.476655    2.072116
H     -2.814251   -1.547557    0.713702
H     -1.743136   -2.906101    1.052759
H     -1.951977    2.944935    1.267681
H     -0.301345    2.492887    1.784267
H     -0.651390    2.964474    0.065902
H     -3.412748   -0.478120   -0.915218
H     -2.704764    0.012742   -2.461860
H      2.448094   -2.476927    0.525580
H      2.093566   -1.756478   -1.051617
H     -0.586215   -0.894950   -2.051955
H     -1.818024   -2.170889   -1.625975
H     -1.315904    1.619306   -1.508596
H     -2.967030    1.794587   -0.754557
H      0.207659   -2.972291   -0.846483
H      0.294508   -3.004898    0.920828
H      0.975317    0.917369    1.990703
H      0.463303   -0.850757    2.164730
H      2.866550   -0.316747    1.241296
H     -2.203933    0.981887    2.355029
