39

C      3.261277    1.699907    0.487326
C      2.934020    0.768147    2.677505
C     -3.098057   -3.124434    0.184579
C      0.344649    2.277100   -2.843603
C     -1.854372    0.183390   -1.783290
C     -0.699481   -0.808526    1.524240
C     -2.442415   -1.045200   -1.152062
C     -1.033966   -2.051133    0.749832
C     -0.438736    0.175662   -2.161520
C      0.716680   -0.391659    1.227135
C      0.789020    1.599397   -0.405427
C      2.436072    1.179389    1.360627
C     -2.219026   -1.908247   -0.217103
C      0.348756    1.387659   -1.589769
C      0.969276    1.034310    0.964245
H      4.328223    1.846600    0.699174
H      2.955145    2.002870   -0.493213
H      3.313687   -0.276804    2.714875
H      3.816001    1.412707    2.946016
H      2.162097    0.853624    3.468410
H     -2.740170   -4.037229   -0.330458
H     -4.138254   -3.072268    0.233205
H     -2.824498   -3.371035    1.283453
H      0.536041    1.595369   -3.753301
H     -0.720923    2.608682   -3.048598
H      0.967086    3.091341   -3.004841
H     -2.020595    1.110319   -1.177584
H     -2.436730    0.447411   -2.717506
H     -1.355182    0.040380    1.167145
H     -0.871138   -0.873662    2.602161
H     -3.388152   -1.091094   -1.862496
H     -1.225893   -2.820870    1.532101
H     -0.118384   -2.452692    0.285992
H      0.106493   -0.779348   -1.994973
H     -0.425892    0.220415   -3.291666
H      1.414879   -0.781972    1.997567
H      1.020276   -0.949051    0.290671
H      1.210227    2.690849   -0.116882
H      0.421957    1.609697    1.748714
