52

C     -5.678310    1.058407   -0.169398
C      5.538889   -0.026574   -0.131267
C     -4.907874   -0.254630   -0.049939
C     -4.732062    2.210269   -0.308411
C      4.603602    0.338825    0.990360
C      4.846992   -0.701493   -1.283903
C     -3.639937   -0.051872   -0.889471
C     -3.418263    1.996194    0.404131
C      3.458785    1.192371    0.431950
C      3.677246    0.167911   -1.763683
C     -0.588724   -1.469905    1.730911
C      0.727753   -1.883099    1.066059
C     -1.430461   -0.853653    0.629111
C      1.498227   -0.610540    0.841772
C     -0.639674   -0.065036   -0.352303
C      0.674506    0.428215    0.143272
C     -2.696887    0.759443   -0.050636
C      2.764734    0.358423   -0.605249
O     -1.203102   -2.614458    2.201703
O      1.441245   -2.776321    1.822341
O     -2.346534    0.048009    1.118588
O      2.554317   -0.912252   -0.023793
O     -1.480962    1.003920   -0.643851
O      1.499343    0.789471   -0.922528
H     -6.414956    1.162752    0.630942
H     -6.260285    0.960459   -1.132281
H      6.308648   -0.690709    0.277172
H      6.052829    0.865299   -0.531044
H     -5.486162   -1.119239   -0.369078
H     -4.653421   -0.357753    1.033210
H     -4.595635    2.460843   -1.380845
H     -5.214084    3.091163    0.184776
H      5.189719    0.977535    1.697537
H      4.239699   -0.586425    1.453985
H      5.595792   -0.851323   -2.078182
H      4.389755   -1.669867   -0.957879
H     -3.912742    0.572266   -1.770999
H     -3.234803   -0.986547   -1.268069
H     -3.655725    1.982952    1.498772
H     -2.782383    2.870666    0.185848
H      2.806745    1.471763    1.270117
H      3.952688    2.087787   -0.020809
H      4.118327    1.145731   -2.049493
H      3.184415   -0.355727   -2.596178
H     -0.414285   -0.754211    2.552992
H      0.429782   -2.311957    0.075335
H     -1.944892   -1.725845    0.128498
H      1.865235   -0.254794    1.814102
H     -0.455127   -0.714034   -1.244569
H      0.588613    1.331017    0.787694
H     -1.598877   -3.069414    1.393190
H      1.378278   -3.664014    1.373847
