39

C      3.280307    0.438354   -1.079351
C      2.758393   -1.149636    0.784454
C     -1.640098    3.010984    1.453002
C     -1.295160   -2.591169    0.898808
C     -2.489571    0.525338   -0.997137
C     -1.935525    1.828686   -0.555083
C     -2.304365   -0.586462   -0.060486
C     -0.798376    0.780322    1.555929
C     -0.395628   -1.475248   -1.220130
C      0.270199    0.099120    1.155000
C      0.535975   -0.343720   -1.313954
C      2.485747    0.182190    0.164106
C     -1.436109    1.865408    0.840342
C     -1.367407   -1.501062   -0.136192
C      0.968051    0.366195   -0.103674
H      2.606088    0.993027   -1.786692
H      4.135644    1.124557   -0.886721
H      3.609879   -0.499026   -1.579066
H      3.838715   -1.393570    0.564370
H      2.176806   -1.975111    0.333714
H      2.678922   -1.073151    1.866027
H     -1.316052    3.149506    2.477261
H     -2.139417    3.828582    0.931033
H     -0.218227   -2.837169    1.005395
H     -1.811660   -3.480137    0.535828
H     -1.646446   -2.230726    1.882510
H     -3.614093    0.644600   -1.100109
H     -2.185273    0.334296   -2.041261
H     -2.736239    2.619618   -0.708644
H     -1.116695    2.175996   -1.212233
H     -3.001576   -0.670891    0.780952
H     -1.196854    0.453634    2.541081
H     -0.933854   -1.562546   -2.218138
H      0.202049   -2.441145   -1.233809
H      0.672752   -0.711625    1.794323
H      1.491652   -0.726364   -1.814955
H      0.174652    0.386425   -2.105457
H      2.756680    0.963520    0.904324
H      0.936113    1.478400   -0.315368
