62

C      7.212151    0.109861    0.151132
C      3.604749   -0.556377   -0.816064
C      2.996138    0.460728   -1.692240
C      3.182776   -0.913155    0.389780
C      3.798848    1.655185   -2.041130
C     -7.696910    0.732894   -3.242625
C     -8.304322    1.670501   -2.433898
C     -6.477168    0.244519   -2.891308
C      2.021301   -0.311316    1.008540
C      5.114124    1.443011   -2.712440
C     -2.651566   -0.630177    1.551492
C     -1.428114   -0.290009    1.161179
C     -6.442560    1.600692   -0.942348
C      0.966373   -1.530850    3.669467
C     -3.565369    0.042299   -0.657896
C     -7.668140    2.095074   -1.289299
C     -3.862319   -0.522771    0.683282
C     -5.805446    0.665521   -1.720425
C      0.886751   -1.240134    1.343071
C     -0.209712   -0.377288    1.975515
C      1.171140   -2.270234    2.366087
C     -0.408754   -0.904920    3.358195
C      6.144844    0.774601   -1.895511
Cl    -8.477441    3.290134   -0.288603
N      6.201609    0.765936   -0.615959
O     -4.770545    0.240967    1.372664
O      2.348829   -2.945045    2.285794
O     -0.754800    0.047029    4.290121
O      7.164037    0.087322   -2.571238
O     -4.624859    0.129390   -1.475625
H      6.995503   -0.951593    0.360012
H      7.370782    0.597108    1.144255
H      8.226262    0.139375   -0.337879
H      4.489780   -1.142888   -1.169089
H      1.940385    0.724927   -1.419449
H      2.834500   -0.082935   -2.687159
H      3.739107   -1.685787    0.925055
H      4.058301    2.152482   -1.048115
H      3.162904    2.365674   -2.638019
H     -8.238203    0.428003   -4.137464
H     -9.271060    2.057304   -2.711971
H     -6.016539   -0.492397   -3.541170
H      1.606214    0.555740    0.473561
H      2.395784    0.152417    1.985832
H      5.525162    2.483995   -2.902102
H      5.015559    0.970958   -3.718826
H     -2.791743   -1.000572    2.537135
H     -1.386644    0.084955    0.121193
H     -6.007027    2.008508   -0.033648
H      1.659412   -0.702748    3.819326
H      0.848431   -2.201985    4.528509
H     -3.048957    1.048540   -0.558051
H     -2.808468   -0.661899   -1.134780
H     -4.280079   -1.554301    0.532462
H      0.444289   -1.668452    0.434426
H      0.140421    0.690885    2.108974
H      0.354794   -3.034608    2.327469
H     -1.104252   -1.776725    3.330052
H     -5.479977   -0.349993    1.764203
H      2.751167   -2.977462    3.208707
H     -0.445529    0.932405    3.921310
H      7.654076   -0.672319   -2.123551
