54

C      5.036977   -1.985657   -0.105478
C      0.065607   -3.102541   -0.707725
C     -4.455967    0.275981    0.393036
C     -3.697906    1.649305   -1.389766
C     -0.836244    1.066732   -2.118534
C     -1.428840    2.514049    0.468865
C      2.583451   -1.375490   -0.496532
C     -0.970817   -1.779461    1.078610
C      1.548709   -0.300130   -0.259533
C     -2.212256   -1.011086    0.792271
C     -2.756429    1.948822    0.824258
C     -0.360677    1.476032    0.231845
C      4.119839    0.098422    0.674199
C      3.910666   -1.035688    0.049804
C     -0.224684   -1.939337   -0.168262
C      0.210522   -0.688635   -0.832564
C     -2.171244   -0.126117   -0.428971
C      5.393911    0.507968    1.238049
C     -3.209138    0.930230   -0.177121
C     -0.818759    0.408704   -0.752063
O      6.403235   -0.229933    1.155184
O      5.558586    1.717816    1.887686
H      4.683023   -2.902636   -0.640761
H      5.429773   -2.319317    0.862666
H      5.891130   -1.554896   -0.683945
H      0.609162   -3.248682   -1.617527
H     -0.269171   -4.022408   -0.197127
H     -4.789805   -0.593937   -0.209627
H     -4.381106   -0.025359    1.421508
H     -5.299596    1.023691    0.330744
H     -3.063012    2.473710   -1.738718
H     -4.032922    0.965117   -2.212435
H     -4.659948    2.165297   -1.080548
H     -0.709730    2.184433   -2.049123
H      0.059845    0.765649   -2.743547
H     -1.701124    0.770198   -2.730202
H     -1.075338    3.111479    1.362282
H     -1.504504    3.256297   -0.355383
H      2.685706   -1.593841   -1.593252
H      2.296500   -2.351178   -0.032633
H     -1.221327   -2.818452    1.446665
H     -0.362750   -1.344441    1.907404
H      1.504324   -0.137982    0.837642
H      1.952653    0.633575   -0.691931
H     -3.028079   -1.748793    0.636485
H     -2.401221   -0.401428    1.726612
H     -3.496999    2.800366    0.765480
H     -2.820508    1.593880    1.872012
H     -0.095660    1.060709    1.216848
H      0.469192    2.025455   -0.262366
H      3.297526    0.817765    0.802088
H      0.403867   -0.967226   -1.891244
H     -2.518449   -0.715783   -1.310109
H      6.460006    2.078752    2.174321
