38

C      3.223218   -0.495776    0.720751
C      1.637122    1.377533    1.323061
C      0.194434    2.297702   -1.241270
C     -0.902594   -0.920418    1.857485
C      0.140748   -1.951181   -1.834959
C      1.225083   -1.735522   -0.845358
C     -0.609145   -0.639914   -1.860820
C     -1.824995    1.890917   -0.025311
C     -2.812491   -0.346231    0.467380
C      1.885136    0.119055    0.595803
C     -0.742942    1.346563   -0.530676
C     -1.397930   -0.863648    0.409164
C     -2.830843    1.121446    0.688494
C      0.938186   -0.431791   -0.123855
C     -0.465834   -0.068857   -0.427597
O     -3.667025    1.637305    1.444097
H      3.198627   -1.604391    0.756940
H      3.730885   -0.177352    1.671968
H      3.919701   -0.139512   -0.093989
H      2.129224    1.285493    2.328000
H      0.571666    1.537429    1.520774
H      2.144854    2.253730    0.856154
H     -0.309363    2.683033   -2.155507
H      1.059330    1.706935   -1.587038
H      0.441766    3.163333   -0.623807
H     -1.441035   -1.737103    2.413096
H      0.176958   -1.065691    1.924276
H     -1.144395    0.061491    2.323748
H     -0.522717   -2.811357   -1.584997
H      0.506619   -2.123907   -2.870935
H      2.196689   -1.653787   -1.389500
H      1.334878   -2.558590   -0.120158
H     -1.652787   -0.854708   -2.097666
H     -0.210433    0.065120   -2.601345
H     -1.982783    2.996827   -0.148034
H     -3.362260   -0.810234    1.310393
H     -3.359111   -0.630603   -0.463292
H     -1.416442   -1.923338    0.014530
