38

C      3.115251    0.838863   -0.523300
C      1.857905    0.685021    1.671920
C     -0.187258   -2.360690    1.514678
C     -1.995115    1.092415   -1.574519
C     -0.132357   -1.077758   -2.362435
C      0.928839   -0.125161   -1.962789
C     -0.773033   -1.523923   -1.089499
C     -1.109028   -0.229293    2.264165
C     -1.409921    1.789692    0.730618
C      1.839279    0.506103    0.220246
C     -0.627561   -0.952400    1.281666
C     -1.622080    0.638193   -0.215524
C     -1.561684    1.170767    2.102844
C      0.823550    0.060484   -0.447873
C     -0.536050   -0.364284   -0.077901
O     -2.036987    1.762315    3.084850
H      3.702240   -0.095676   -0.623842
H      3.698922    1.585564    0.047434
H      2.841376    1.200452   -1.534650
H      2.946859    0.915600    1.959485
H      1.230344    1.500709    2.033922
H      1.705233   -0.293626    2.202885
H     -0.110394   -2.578628    2.605775
H     -0.861908   -3.103355    1.090454
H      0.822124   -2.451449    1.047308
H     -1.211648    1.491613   -2.202630
H     -2.664582    0.337240   -2.045221
H     -2.701773    1.974352   -1.410085
H      0.358930   -1.984679   -2.843507
H     -0.832428   -0.680950   -3.126895
H      1.940111   -0.621050   -2.119089
H      0.994033    0.823888   -2.478586
H     -0.210329   -2.400270   -0.708314
H     -1.832587   -1.767639   -1.157831
H     -1.168219   -0.711562    3.245448
H     -0.453862    2.273832    0.574736
H     -2.206885    2.554855    0.623081
H     -2.559306    0.120437    0.202976
