62

C      6.907792    4.717274    0.482153
C      3.433000   -0.942942    0.092252
C      2.976995    0.182881    0.915560
C      2.660221   -1.708372   -0.621053
C      3.596490    1.503440    0.468982
C     -5.168885    3.421322   -1.910671
C     -6.450879    3.172217   -1.487186
C     -4.138335    2.965511   -1.136460
C      1.209905   -1.573397   -0.721018
C      5.097632    1.432622    0.572976
C     -2.399033   -0.977393    0.692555
C     -1.554612   -1.988579    0.829707
C     -5.612767    2.045263    0.429359
C     -0.242793   -5.010495   -0.705898
C     -2.723166    1.241352    1.755735
C     -6.696514    2.488829   -0.325070
C     -2.988958   -0.222195    1.835930
C     -4.304028    2.259853    0.062488
C      0.522269   -2.835328   -0.237303
C     -0.973515   -2.733613   -0.325385
C      0.810511   -4.011095   -1.145978
C     -1.396266   -4.180502   -0.181984
C      5.656670    2.734105    0.130178
Cl    -8.327840    2.174676    0.208978
N      6.364734    3.460227    0.901852
O     -4.330508   -0.497053    1.862440
O      0.532962   -3.646562   -2.451929
O     -2.584999   -4.440137   -0.861103
O      5.385063    3.146860   -1.164567
O     -3.189695    1.892902    0.691315
H      7.944766    4.647500    0.083857
H      6.259178    5.276769   -0.222148
H      6.976575    5.371227    1.396298
H      4.536736   -1.146283    0.088975
H      3.369779    0.039457    1.977490
H      1.901791    0.307791    1.048623
H      3.156916   -2.518738   -1.189153
H      3.235147    2.307388    1.122218
H      3.317246    1.649380   -0.593960
H     -5.036614    3.964769   -2.834012
H     -7.275681    3.524299   -2.085914
H     -3.134529    3.163956   -1.473866
H      0.839906   -0.758645   -0.096666
H      0.864302   -1.339139   -1.760355
H      5.534101    0.641705   -0.056087
H      5.381317    1.209662    1.625758
H     -2.674872   -0.684828   -0.313381
H     -1.284563   -2.274156    1.834159
H     -5.815276    1.528441    1.354923
H     -0.636474   -5.579771   -1.583604
H      0.179614   -5.689159    0.060361
H     -1.633933    1.464239    1.997039
H     -3.225341    1.667291    2.702951
H     -2.568197   -0.567820    2.808833
H      0.789755   -3.101344    0.782910
H     -1.321306   -2.289970   -1.279310
H      1.836740   -4.400449   -1.016914
H     -1.506222   -4.400506    0.900853
H     -4.705515   -0.683386    0.960312
H     -0.385102   -3.955249   -2.727826
H     -2.930069   -5.295583   -0.503007
H      5.938374    3.849485   -1.644147
