43

C     -3.573012    0.294870   -1.419924
C     -4.329007    0.323801   -0.128838
C      4.911439   -0.203413   -0.336323
C     -0.721754   -1.153939    1.586718
C      0.191724    0.031587    1.350862
C     -2.128231   -0.145598   -1.236102
C      4.325289    0.848624   -1.188242
C      3.969944   -0.930326    0.550586
C     -3.585633    1.110298    0.921736
C     -2.151576   -0.705535    1.568677
C      0.608161   -0.247959   -1.110919
C     -0.040389    0.567055   -0.032542
C     -1.507456    0.769012   -0.225770
C      2.884786    0.748270   -1.424271
C      2.676566   -1.246689   -0.060676
N     -2.238271    0.612156    1.018653
N      2.039799   -0.257525   -0.861896
O      2.345350    1.603605   -2.173521
O      2.083832   -2.361998    0.083177
H     -3.551346    1.343483   -1.811854
H     -4.100359   -0.332667   -2.156794
H     -5.283986    0.863448   -0.314357
H     -4.533593   -0.690296    0.273872
H      5.690317    0.279491    0.324229
H      5.498918   -0.977935   -0.910712
H     -0.519054   -1.988252    0.887520
H     -0.441266   -1.549504    2.606447
H      1.230649   -0.150888    1.607220
H     -0.171421    0.832204    2.060581
H     -2.115377   -1.206017   -0.952213
H     -1.660499   -0.070131   -2.243168
H      4.827073    0.797430   -2.199065
H      4.539814    1.892822   -0.835397
H      4.472406   -1.875602    0.886420
H      3.833762   -0.328921    1.493151
H     -3.533197    2.189030    0.672340
H     -4.058291    0.992651    1.912090
H     -2.512097   -0.657042    2.619068
H     -2.766482   -1.457040    1.041505
H      0.194183   -1.265805   -1.196474
H      0.468937    0.300835   -2.067218
H      0.456347    1.581530   -0.062471
H     -1.727002    1.820884   -0.569621
