43

C     -3.374331    2.131935    0.302638
C     -4.234835    0.975470    0.714753
C      4.888823   -0.312411    0.193064
C     -1.017263   -2.037510   -0.882311
C     -0.088854   -0.949476   -1.288181
C     -1.890704    1.862027    0.524992
C      4.419915    1.106693    0.048583
C      3.904606   -1.311182   -0.421698
C     -3.693742   -0.359624    0.348977
C     -1.806831   -1.809527    0.347895
C      0.698484    0.274531    0.777027
C     -0.179934    0.294576   -0.441229
C     -1.612624    0.546459   -0.161297
C      2.953913    1.249269    0.205915
C      2.645981   -1.172269    0.353685
N     -2.273036   -0.485194    0.569680
N      2.100253    0.137255    0.443697
O      2.473306    2.407380    0.121571
O      2.132549   -2.190244    0.881853
H     -3.584783    2.429884   -0.750085
H     -3.674692    3.011273    0.922768
H     -4.460155    1.020975    1.820564
H     -5.226528    1.096069    0.224041
H      4.999794   -0.620624    1.258097
H      5.865271   -0.487064   -0.290047
H     -1.722690   -2.342942   -1.708857
H     -0.392681   -2.962789   -0.718315
H      0.953637   -1.302021   -1.432314
H     -0.406365   -0.624422   -2.325617
H     -1.356160    2.696335   -0.009070
H     -1.703149    1.849432    1.600882
H      4.815182    1.546615   -0.865490
H      4.875677    1.677543    0.909857
H      3.775477   -1.010160   -1.474956
H      4.360769   -2.309545   -0.306457
H     -3.982113   -0.681694   -0.693276
H     -4.188225   -1.126372    1.012624
H     -2.721387   -2.474015    0.299420
H     -1.286513   -2.176757    1.282153
H      0.460269   -0.548199    1.482026
H      0.492406    1.215392    1.331297
H      0.193114    1.149234   -1.073567
H     -2.131827    0.615692   -1.163433
