39

C      1.476456   -0.348694    0.712672
C      1.015329    0.321340   -0.549540
C     -1.361930   -0.396438   -0.545998
C     -2.237112   -0.216618    0.419886
C     -0.423478    0.717281   -0.531356
C     -1.918844    1.020512    1.115767
O      2.836073   -0.643668    0.637375
O      1.225243   -0.506938   -1.649525
O     -1.412230   -1.511436   -1.395160
O     -3.306123   -1.097368    0.715063
O     -2.575418    1.491386    2.110488
O     -0.811965    1.541733    0.496034
C     -1.619543    0.137155   -0.950238
C     -1.438864   -0.697717    0.314237
C      1.029093   -0.482652    0.152395
C      1.689292    0.634923   -0.036594
C     -0.164295   -0.241670    0.974986
C      0.967812    1.691057    0.654392
O     -1.603839    1.488135   -0.663491
O     -1.451793   -2.045910    0.048916
O      1.459657   -1.705028   -0.385906
O      2.890360    0.796266   -0.778578
O      1.311531    2.886618    0.686541
O     -0.139050    1.122759    1.248925
Zn     0.000000    0.000000    0.000000
H      1.305721    0.240067    1.610957
H      0.951837   -1.341422    0.780448
H      1.622048    1.235396   -0.705104
H     -0.608223    1.305344   -1.488500
H      3.192194   -0.369893   -0.263902
H      1.030422   -1.440583   -1.469605
H     -0.810438   -0.091912   -1.672989
H     -2.582769   -0.114536   -1.432077
H     -2.277497   -0.471637    1.003470
H     -0.004543   -0.790789    1.941425
H     -2.291875    1.701479    0.002117
H     -1.052516   -2.303276   -0.805487
H      2.296942   -2.168383   -0.002621
H      3.792336    0.655117   -0.299422
