55

C      3.829437   -0.550448   -1.446586
C      0.096915    3.193064   -0.405984
C     -4.128965   -0.389505   -1.308603
C     -4.268674   -0.303010    1.105006
C     -1.575488    0.476199    2.289173
C     -1.941417   -2.217465    1.128535
C      2.574054    1.073521    0.125853
C     -0.529177    1.291687   -1.781810
C      1.376722    0.155612    0.279514
C     -1.718336    0.447105   -1.510527
C      4.861102    0.268827    0.568997
C     -2.890804   -2.010885   -0.000409
C     -0.719512   -1.376939    0.965901
C      6.067358   -0.490391    0.287305
C      3.805273    0.258245   -0.221651
C     -0.082256    1.904288   -0.504108
C      0.137984    0.943681    0.626427
C     -2.163244    0.393069   -0.086917
C     -3.303976   -0.564835   -0.023347
C     -1.061869    0.106873    0.895191
O      6.096270   -1.243003   -0.847490
H      2.829112   -0.417826   -1.965484
H      4.556241   -0.212925   -2.215487
H      3.865971   -1.654682   -1.271869
H     -0.079569    3.832846   -1.260550
H      0.422344    3.661121    0.515675
H     -5.051678   -1.015263   -1.122262
H     -4.483340    0.631947   -1.429356
H     -3.640596   -0.841342   -2.175459
H     -4.572980    0.767800    1.130439
H     -3.964248   -0.711179    2.066524
H     -5.218073   -0.852100    0.825392
H     -2.468362    1.159055    2.212128
H     -1.746497   -0.392418    2.922468
H     -0.814451    1.107620    2.838980
H     -2.432209   -2.133423    2.115088
H     -1.596038   -3.292257    1.070427
H      2.723606    1.557271    1.114322
H      2.414760    1.863331   -0.619349
H     -0.722268    2.099520   -2.543073
H      0.322371    0.699535   -2.202673
H      1.647050   -0.592967    1.034103
H      1.248423   -0.372291   -0.686717
H     -1.517182   -0.587295   -1.908703
H     -2.575781    0.894139   -2.096045
H      4.848060    0.869782    1.482696
H     -2.424810   -2.338093   -0.951531
H     -3.810747   -2.615840    0.137176
H     -0.196228   -1.718298    0.050154
H     -0.098551   -1.525107    1.883015
H      6.255063   -1.168121    1.163958
H      6.929215    0.237813    0.339012
H      0.419565    1.585421    1.499805
H     -2.573925    1.409215    0.174360
H      7.044353   -1.300676   -1.164802
