84

C      0.334282    1.487302   -2.972697
C      0.557338   -0.834859   -2.478341
C      0.955572    4.238894    0.911243
C      2.643157    3.488238   -0.615658
C     -3.412838    2.060910   -1.037785
C     -1.166767   -3.707929   -0.235325
C      1.807719    1.898359    2.666120
C     -4.588627   -2.767787   -0.714708
C     -6.193388   -3.728068    0.932932
C      7.317812    1.397046   -3.109538
C      7.452846    0.656097   -1.965392
C      6.054943    1.781983   -3.495077
C      6.345681    0.297891   -1.206856
C      4.953709    1.413692   -2.721580
C     -4.053942    0.482102    0.679907
C      3.870010    0.321899   -0.826642
C     -3.796529   -0.671563    1.569024
C      3.867452   -0.422520    0.271792
C     -2.450305   -2.650172    1.717848
C      0.366384   -0.119227    2.647812
C     -0.174902    0.467756   -2.266090
C      1.381843    3.238916    0.144137
C     -3.090696    0.870765   -0.156045
C     -1.387017   -2.830707    1.002611
C      0.438456    1.401749    2.428789
C      5.074408    0.669458   -1.569489
C     -4.778400   -1.780139    1.685174
C     -3.919294   -3.075924    1.799039
C      2.619241   -0.754047    0.999166
C     -0.905932    0.343903    0.880501
C     -1.735229    0.185242   -0.292908
C     -0.163819    1.651610    1.071003
C     -0.079632   -2.046151    1.097589
C     -4.896148   -2.918299    0.733869
C      0.195224   -0.606693    1.223492
O      2.779308   -1.476901    2.015102
O      0.967554   -2.788496    1.054520
O     -1.219975    0.640514   -1.479157
O      0.681834    2.045838    0.068392
O      1.392759   -0.293786    0.573227
H      1.171605    1.419323   -3.627698
H     -0.133045    2.474550   -2.883078
H      0.171979   -1.271585   -3.438912
H      1.623431   -0.639458   -2.659141
H      0.413640   -1.543506   -1.672335
H      1.481031    5.184158    0.990774
H      0.059025    4.155098    1.495186
H      2.753470    4.579783   -0.777419
H      2.608445    3.027671   -1.623079
H      3.493382    3.142603    0.000501
H     -2.965098    2.988247   -0.627081
H     -2.955570    1.828163   -2.028637
H     -4.496232    2.136569   -1.185805
H     -0.094816   -4.064151   -0.310497
H     -1.672629   -4.673654   -0.298114
H     -1.442278   -3.185169   -1.168562
H      2.495993    1.968467    1.837076
H      1.752316    2.829581    3.285202
H      2.294740    1.152812    3.378918
H     -5.565419   -2.755924   -1.283055
H     -4.082009   -1.854412   -1.003217
H     -4.086256   -3.710296   -1.064088
H     -7.027222   -3.170718    0.484733
H     -6.063711   -4.737251    0.476592
H     -6.386316   -3.804473    2.019259
H      8.182469    1.687735   -3.718991
H      8.434557    0.351648   -1.657708
H      5.938637    2.365751   -4.394630
H      6.480278   -0.285251   -0.310816
H      3.983059    1.728023   -3.054317
H     -5.016143    1.001724    0.711853
H      2.885885    0.660959   -1.134171
H     -3.571866   -0.323490    2.618212
H     -2.975187   -1.158192    1.060868
H      4.787802   -0.793996    0.641679
H     -2.499945   -2.035992    2.716297
H     -0.618245   -0.319695    3.166731
H      1.206985   -0.491654    3.199681
H     -0.279612    1.870416    3.169375
H     -5.557683   -1.622491    2.465676
H     -4.224964   -3.683576    2.671946
H     -1.583494    0.451800    1.832100
H     -1.987016   -0.902404   -0.486391
H     -0.978066    2.455362    1.155085
