71

C     -1.285252   -3.569480    0.709335
C     -1.235166    2.987104   -2.247978
C      2.581013   -0.033074    2.851016
C      3.904010   -2.811805   -0.301569
C     -5.488838    1.492758   -0.496031
C     -5.753666    1.649417    2.009561
C      6.331033    0.188895   -2.469518
C      5.351547   -0.002840   -3.416615
C      6.013990    0.474457   -1.153754
C      4.034805    0.097845   -3.016992
C      4.682339    0.564909   -0.802676
C     -2.940121   -1.813430    0.326967
C     -3.339214   -0.501500   -0.175418
C     -2.728146    2.273305   -0.314080
C      0.691774    1.231686    1.780764
C     -1.708935   -2.225055    0.199257
C     -1.537738    2.382451   -0.850948
C      1.145806   -0.051363    2.405807
C      2.681168   -2.635697    0.522998
C      3.679313    0.378019   -1.728450
C     -3.739553    0.373824    0.962600
C     -3.343052    1.752355    0.973758
C     -0.193097   -0.416908    0.551428
C     -0.734227   -1.332037   -0.455732
C      0.893930   -1.150558    1.360264
C     -0.195817    1.998814   -0.304299
C      2.279156    0.476546   -1.348487
C     -4.849775    1.338383    0.865346
C      0.445971    0.836971    0.282205
O      2.219991   -3.605242    1.140683
O      0.334854   -2.198701   -0.838414
O      0.660890    3.011563   -0.373012
O      1.377284    0.312550   -2.174960
O      2.042130   -1.411067    0.618608
O      1.839823    0.750173   -0.087171
H     -2.059812   -4.340024    0.409226
H     -0.355896   -3.914539    0.258167
H     -1.304364   -3.612658    1.826506
H     -0.280655    3.608115   -2.184306
H     -1.032184    2.210670   -2.998732
H     -1.881710    3.694118   -2.705548
H      2.657970    0.043247    3.975457
H      3.130032   -0.905775    2.485893
H      3.072847    0.875622    2.446933
H      4.747814   -2.184118    0.109921
H      4.271789   -3.854217   -0.222674
H      3.763941   -2.493496   -1.354380
H     -6.485208    1.000749   -0.476040
H     -5.729706    2.575570   -0.700747
H     -4.888141    1.109807   -1.331186
H     -6.165360    2.679761    1.837716
H     -6.603480    0.960573    1.989156
H     -5.225891    1.676895    2.985701
H      7.374068    0.121253   -2.729457
H      5.663339   -0.222872   -4.426947
H      6.778058    0.623495   -0.417468
H      3.276399   -0.055326   -3.772207
H      4.410732    0.786166    0.215309
H     -3.672542   -2.443884    0.807012
H     -2.746305   -0.036683   -0.954423
H     -4.328549   -0.709864   -0.714276
H     -3.703855    2.629295   -0.814641
H     -0.274650    1.561202    2.211573
H      1.398336    2.057123    1.842939
H      0.514818   -0.326705    3.280892
H     -3.717250   -0.177371    1.924013
H     -3.205587    2.264658    1.937012
H     -0.987232   -0.260977    1.352424
H     -1.024910   -0.891870   -1.409819
H      0.514962   -2.059787    1.848909
H     -0.020055   -2.801426   -1.536402
