84

C     -1.790986    1.845842    3.213747
C     -1.139556    3.872983    2.092880
C      0.632590    3.687168   -1.989445
C      2.346993    3.459817   -0.318511
C     -3.335736    2.213433    0.170867
C      0.189464   -4.291645    1.260090
C      1.589387    0.864596   -2.994378
C     -5.418019   -4.141578   -1.680475
C     -4.567754   -4.351497    0.697837
C      7.847461    2.420095    1.288857
C      7.046579    2.036315    2.342432
C      7.395278    2.225978   -0.000827
C      5.818288    1.470432    2.067999
C      6.160894    1.656723   -0.232696
C     -3.822409   -0.133291    0.261697
C      4.029477    0.660414    0.522018
C     -3.425817   -1.545006    0.451743
C      3.175604    0.255073    1.436802
C     -1.886492   -3.932490   -0.155138
C      0.342164   -1.038911   -2.179562
C     -1.274419    2.378042    2.135838
C      1.117410    2.982377   -0.996676
C     -2.924273    0.826689    0.361293
C     -0.674351   -3.595534    0.177249
C      0.244418    0.410332   -2.546931
C      5.324064    1.256498    0.808175
C     -3.779803   -2.366925   -0.741959
C     -2.940244   -3.454193   -1.140902
C      1.867260   -0.345873    1.072513
C     -0.886022   -0.189688   -0.523067
C     -1.509675    0.379641    0.670254
C     -0.308061    1.007310   -1.318485
C      0.224488   -2.513013   -0.352023
C     -4.422116   -3.676618   -0.665619
C      0.195225   -1.094567   -0.614114
O      1.090512   -0.729531    2.003415
O      1.435896   -2.918984   -0.708482
O     -0.860846    1.611203    1.063437
O      0.536935    1.807806   -0.545145
O      1.423675   -0.524277   -0.194206
H     -2.102375    2.464036    4.028638
H     -1.908306    0.782435    3.293712
H     -0.652383    4.277950    2.986744
H     -2.179323    4.313709    2.070788
H     -0.642066    4.156754    1.142005
H      1.106210    4.589947   -2.312085
H     -0.260525    3.340416   -2.481962
H      2.440226    4.563975   -0.387006
H      3.203270    3.049451   -0.898961
H      2.452081    3.103154    0.710401
H     -3.777614    2.663308    1.108913
H     -2.617774    2.914619   -0.202582
H     -4.207000    2.223304   -0.550051
H      1.273610   -4.324313    0.909698
H      0.220794   -3.689991    2.188555
H      0.041115   -5.306126    1.526144
H      2.255360    1.243407   -2.222058
H      2.162502    0.010032   -3.473721
H      1.437850    1.604582   -3.817745
H     -5.802031   -3.245631   -2.214317
H     -6.198599   -4.751769   -1.233728
H     -4.845821   -4.718068   -2.459229
H     -4.405446   -5.441493    0.517264
H     -5.631927   -4.176400    0.986417
H     -3.897234   -3.920609    1.450013
H      8.816970    2.866609    1.506957
H      7.393218    2.184627    3.371360
H      8.055443    2.541451   -0.800026
H      5.225684    1.185571    2.917067
H      5.860911    1.530337   -1.262927
H     -4.874218    0.134635    0.035107
H      3.756515    0.540864   -0.537433
H     -2.477772   -1.732553    0.913772
H     -4.156254   -1.920147    1.251757
H      3.451980    0.370778    2.470297
H     -2.489034   -4.806999    0.306305
H      1.325427   -1.465287   -2.399922
H     -0.503094   -1.628185   -2.553333
H     -0.521716    0.476706   -3.360947
H     -4.180355   -1.725296   -1.557408
H     -2.878587   -3.725521   -2.214324
H     -1.730120   -0.523684   -1.214812
H     -1.467333   -0.203146    1.572973
H     -1.139739    1.687417   -1.623673
