70

C     -3.415690   -3.167988    0.210148
C     -0.542149    2.539791    2.728119
C      1.892670   -3.849114    1.557934
C     -1.739755    1.771070   -1.968827
C     -3.490587    3.499913   -1.811183
C      5.983292    2.722478   -3.928416
C      6.298677    3.143344   -2.651283
C      4.927610    1.857295   -4.097179
C      5.550192    2.689970   -1.563860
C      4.193577    1.416729   -2.997610
C     -3.178577   -1.151765   -1.094154
C      3.740086    1.393505   -0.539042
C     -4.059702   -0.167267   -0.446228
C      2.706942    0.591817   -0.546052
C     -2.068274    1.275817    1.058129
C      1.203540   -1.721910    2.692804
C     -2.624706   -2.236760   -0.218335
C     -1.148445    1.359471    1.953904
C      0.973214   -3.185618    2.544667
C      4.485327    1.819841   -1.716780
C     -3.955074    1.279661   -0.642334
C     -3.053375    2.093574    0.245313
C      2.001545    0.207724    0.699545
C     -0.852987   -1.991787    1.553414
C     -1.185666   -2.186981    0.111342
C     -0.487462   -3.302760    2.178892
C     -0.337965    0.193393    2.514831
C     -2.985582    2.169265   -1.209479
C      0.241386   -0.989446    1.825171
O      2.434698    0.673388    1.786396
O     -0.498928   -3.306423   -0.361880
O     -0.606339   -4.412721    1.363905
O     -0.066169    0.144025    3.774699
O      0.924036   -0.619583    0.643435
H     -3.213334   -4.021375    0.838411
H     -4.485131   -3.128251   -0.091232
H      0.517083    2.737991    2.447699
H     -1.009210    3.499604    2.715434
H     -0.555381    2.299725    3.855500
H      1.425745   -4.710307    1.035120
H      2.191416   -3.076630    0.806009
H      2.839247   -4.179644    2.060263
H     -1.011720    1.183821   -1.359359
H     -1.146866    2.696075   -2.191303
H     -1.969670    1.329177   -2.956871
H     -4.255163    3.950120   -1.170607
H     -3.995057    3.209558   -2.762261
H     -2.662515    4.207833   -1.927517
H      6.555051    3.067502   -4.792342
H      7.128785    3.823161   -2.526557
H      4.677911    1.522786   -5.105865
H      5.805979    3.023517   -0.573659
H      3.371459    0.736472   -3.157710
H     -3.749540   -1.766306   -1.863559
H     -2.381070   -0.715671   -1.738940
H      4.042822    1.756261    0.456146
H     -4.195917   -0.486993    0.648831
H     -5.119020   -0.485204   -0.787462
H      2.361308    0.203539   -1.496202
H     -2.436626    0.279739    0.578517
H      2.275649   -1.542201    2.456437
H      0.975266   -1.468086    3.757568
H      1.103144   -3.701549    3.533883
H     -5.023414    1.728495   -0.683604
H     -3.620413    2.859300    0.802346
H     -1.775291   -1.587972    2.074628
H     -0.678039   -1.327366   -0.422847
H     -1.095252   -3.472826    3.116078
H     -1.058054   -3.823601   -1.008791
H     -1.093542   -5.172643    1.783812
