92

C      4.638220    3.044120    0.206201
C     -3.660297   -3.359595   -0.025958
C      2.328381   -3.069637    1.329325
C     -0.529587   -4.676036   -1.049998
C      3.574522   -1.727200   -2.985188
C     -4.950277    3.221318    1.010368
C      2.685659   -1.098426   -2.133786
C      4.932358   -1.612222   -2.684422
C     -5.199786   -1.040919   -1.039509
C      6.132407    0.856588    2.326801
C     -5.720990    2.013573    0.664050
C     -5.747688   -0.215745   -0.198936
C      4.652303    0.747385    2.623052
C      2.073740    1.737112   -0.568365
C     -3.004099    1.167805   -1.941561
C     -3.474390    3.052546    1.115858
C      2.377902    2.629794    0.641213
C     -3.265377    2.500432   -1.225389
C     -0.375731    0.269191   -0.545671
C     -4.972133    0.123010    2.034286
C      3.110259   -0.394639   -1.045831
C     -1.623742   -0.370269   -0.614769
C      0.792336   -0.403604   -0.281741
C      5.392419   -0.910793   -1.596728
C     -3.772492   -1.116243   -1.259191
C      6.155581    0.858890    0.826105
C     -3.650469   -0.537275    2.131456
C      4.460143   -0.302432   -0.781455
C     -1.692156   -1.731069   -0.410255
C      0.706756   -1.770292   -0.080207
C     -0.538470   -2.431677   -0.144325
C      2.648874    0.310224    1.213784
C     -4.957585    0.725339    0.613215
C      2.087346    0.251936   -0.141819
C     -3.003703    0.111597   -0.878273
C      3.952979    1.011774    1.337662
C     -3.532284    0.810647    0.328083
N      3.735506    2.439086    1.126662
N     -3.070181   -2.145334   -0.531156
N     -3.015609    2.150127    0.127126
N      4.865067    0.452191    0.352135
O      6.744471   -0.855443   -1.381215
O      7.105008    1.155234    0.063357
O     -3.392309   -1.632337    2.713114
O      2.132951   -0.153136    2.187545
O      1.757017   -2.601247    0.184367
O     -0.641728   -3.804503    0.057544
O     -2.788868    0.308253    1.451783
Cl     0.683668    0.000000    0.000000
Cl     0.692732    0.000000    0.000000
H      4.843612    2.486181   -0.704628
H      4.150693    4.006869   -0.131240
H      5.595197    3.370572    0.664473
H     -4.708062   -3.131826    0.264175
H     -3.133527   -3.723094    0.888206
H     -3.699684   -4.152301   -0.801450
H      3.297911   -2.549638    1.504009
H      2.557355   -4.153202    1.354370
H      1.699157   -2.869038    2.222646
H     -1.249977   -5.535494   -0.964862
H      0.477160   -5.146538   -1.082918
H     -0.688984   -4.158400   -2.020569
H      3.217746   -2.281270   -3.844149
H     -5.294067    3.676601    1.987325
H     -5.129129    4.054425    0.267013
H      1.626020   -1.205208   -2.393262
H      5.597604   -2.123557   -3.381721
H     -5.857437   -1.716250   -1.612609
H      6.605529    1.736282    2.755096
H      6.658638   -0.088353    2.628212
H     -6.275009    2.194297   -0.281838
H     -6.530864    1.875296    1.440910
H     -6.849748   -0.206940   -0.076825
H      4.418558    1.606037    3.317104
H      4.386244   -0.213959    3.094003
H      2.982467    1.897947   -1.231532
H      1.185498    2.086423   -1.029616
H     -3.810778    0.949027   -2.679839
H     -2.063619    1.206241   -2.528916
H     -3.248758    2.624367    2.114499
H     -2.993370    4.031009    1.038676
H      2.324005    3.666540    0.249977
H      1.621793    2.534862    1.425106
H     -4.282205    2.795732   -1.474788
H     -2.493581    3.233600   -1.566538
H     -0.450559    1.333049   -0.712156
H     -4.964601    0.981001    2.745675
H     -5.820266   -0.542471    2.184953
H     -3.602580   -1.259895   -2.367079
H      7.439366   -1.277021   -1.946056
H     -0.683668    0.000000    0.000000
H     -0.692732    0.000000    0.000000
