39

C     -2.844046    1.749483   -0.060896
C      2.576728    2.155609    0.236095
C     -1.613471   -2.325782    0.229786
C      0.441873   -1.648818    1.522194
C      1.395001   -0.456921    1.348793
C     -0.690559   -0.180760   -1.694233
C     -2.481458    0.278248    0.067292
C      1.907659    1.076960   -0.593227
C     -2.124510   -0.198802   -1.293079
C      0.187928   -0.784567   -0.621377
C     -1.294333    0.064805    0.964308
C     -0.271069    1.091423    0.618061
C      2.985925    0.189803   -1.090538
C     -0.669809   -1.267097    0.571687
C      0.911592    0.295561    0.149735
O     -2.991480   -0.599280   -2.070325
O     -0.435883    2.278307    0.720308
O      4.194751    0.364126   -0.755798
O      2.769464   -0.886365   -1.948071
H     -2.285161    2.252593   -0.870149
H     -2.767907    2.278905    0.916556
H     -3.921543    1.790308   -0.359197
H      3.542956    2.388222   -0.270162
H      2.815051    1.814792    1.248960
H      1.973055    3.080882    0.206072
H     -1.321685   -3.268088    0.780007
H     -2.674904   -2.148970    0.541242
H     -1.572917   -2.612389   -0.846700
H      0.947694   -2.534694    1.091161
H      0.113954   -1.770101    2.554072
H      1.226470    0.173125    2.269144
H      2.439501   -0.763840    1.311797
H     -0.433427    0.878452   -1.910879
H     -0.581093   -0.781891   -2.643758
H     -3.382319   -0.237078    0.466994
H      1.443151    1.555474   -1.467484
H      0.812224   -1.598575   -0.979625
H     -1.549368    0.083705    2.043796
H      3.221965   -1.776769   -1.786433
