68

C     -0.837900    6.872929    1.248800
C     -5.988932   -1.006697    0.245599
C     -4.170646   -2.113434   -0.734866
C     -6.484156   -2.188267    0.748471
C     -4.654472   -3.315152   -0.236045
C     -4.326047    0.321460   -1.035742
C      3.373416   -4.301930   -0.340584
C      1.119961    3.405741   -0.152556
C     -4.820069   -0.931888   -0.509218
C     -5.809396   -3.373195    0.507768
C     -3.088030    0.736095   -1.032505
C      0.428615    3.298959    0.996677
C      3.700314   -2.882913   -0.719355
C      0.406892    1.979386    1.666107
C      0.222638    0.903398    0.582027
C      4.989538   -2.481039   -0.034755
C      5.306939   -1.084075   -0.517729
C      4.209851   -0.445549   -1.299382
C     -0.882503    1.771433    2.445576
C     -1.891240    0.001533   -0.478715
C     -1.869438    1.491222    1.437666
C     -0.236321    4.491667    1.467825
C     -2.499075    1.989423   -1.509930
C      1.305955    0.968826   -0.438035
C      2.826352   -0.750762   -0.796340
C     -1.148648    1.194267    0.118792
O      2.170623   -4.727991   -0.867533
O     -6.258714   -4.589237    0.986805
O      6.001985   -3.391926   -0.337806
O      5.789500   -0.275799    0.509477
O      4.277955   -0.684587   -2.668982
O     -1.147135   -0.543443   -1.502050
O     -0.907013    4.493575    2.534672
O     -3.004401    2.719651   -2.386416
O     -0.185152    5.704195    0.788862
O      1.762731    2.309675   -0.645514
O      2.711944   -2.021554   -0.253959
O     -1.498744    0.512072    2.406423
O      2.418122    0.263288    0.067475
O     -1.293012    2.220091   -0.823563
H     -0.201543    7.344234    2.015359
H     -1.852493    6.660309    1.651421
H     -0.996815    7.560531    0.367135
H     -6.533142   -0.091380    0.446394
H     -3.267754   -2.172751   -1.308463
H     -7.390846   -2.252960    1.335963
H     -4.106723   -4.223869   -0.441057
H     -5.076970    0.983924   -1.482965
H      3.463465   -4.508155    0.739512
H      4.172702   -4.938343   -0.822024
H      1.170683    4.341270   -0.685237
H      3.863963   -2.815048   -1.802888
H      1.307413    1.758354    2.236485
H      0.234835   -0.057883    1.120099
H      4.847134   -2.437723    1.084362
H      6.176223   -1.203751   -1.230092
H      4.350558    0.670856   -1.196611
H     -1.081859    2.345323    3.354961
H     -2.255644   -0.687465    0.280988
H     -2.912034    1.804354    1.417287
H      0.958992    0.599999   -1.400569
H      2.140333   -0.717795   -1.666812
H      1.513025   -4.767030   -0.128604
H     -5.725592   -5.419821    0.778690
H      6.826943   -3.178477    0.126441
H      6.439397    0.386141    0.164087
H      4.880134   -0.029784   -3.095600
H     -0.966675   -1.492511   -1.295706
