26

C     -1.793317    0.897260    0.095583
C     -1.869810   -0.587792    0.396447
C      1.911133    0.605716   -0.151288
C      1.769680   -0.896566   -0.348285
C     -0.246468   -0.068448   -1.515270
C      0.206976    0.049073    1.494679
C     -0.460998    1.136616   -0.594418
C     -0.452423   -1.070701    0.692952
C      0.615335    1.109284    0.480211
C      0.298634   -1.175005   -0.622447
H     -1.836800    1.460299    1.031471
H     -2.595270    1.155375   -0.630180
H     -2.327846   -1.127211   -0.439893
H     -2.487910   -0.738452    1.292672
H      2.112839    1.134515   -1.091986
H      2.730952    0.830464    0.555127
H      2.393190   -1.251453   -1.198614
H      2.101122   -1.402892    0.592917
H     -1.200599   -0.383993   -1.969224
H      0.469901    0.199472   -2.297820
H      1.090595   -0.354285    2.031358
H     -0.488331    0.466507    2.253399
H     -0.445785    2.088097   -1.159235
H     -0.440671   -2.015185    1.254447
H      0.764878    2.097913    0.940073
H      0.180992   -2.158610   -1.092675
