26

C     -2.032415    0.115642    0.254584
C     -1.299712    1.361929    0.707774
C      1.385242   -1.471618   -0.307986
C      1.899907   -0.105276   -0.685514
C     -0.359622    0.248686   -1.487579
C      0.378021   -0.199095    1.480979
C     -1.009589   -0.737024   -0.508206
C      0.215808    1.124816    0.716408
C      0.057299   -1.267536    0.424563
C      0.753560    0.915858   -0.670818
H     -2.779311    0.442110   -0.492157
H     -2.517906   -0.430731    1.056995
H     -1.576548    2.252567    0.148473
H     -1.565220    1.483058    1.799078
H      2.086972   -1.859036    0.481879
H      1.308644   -2.170681   -1.136761
H      2.204980   -0.178961   -1.767595
H      2.746662    0.233359   -0.066771
H      0.015010   -0.239659   -2.385014
H     -1.100586    1.025348   -1.804514
H     -0.330313   -0.254762    2.332059
H      1.417660   -0.297988    1.824164
H     -1.473815   -1.577702   -1.024709
H      0.717433    1.904966    1.285982
H     -0.256746   -2.151654    0.973171
H      1.114586    1.833386   -1.148484
