125

C      9.472437   -1.119697   -0.081326
C     10.168717    1.122868   -3.100173
C      6.201649   -1.167865    4.233242
C      5.531993   -1.546450   -2.467045
C      5.985080   -1.945379   -0.175685
C     -2.732128   -1.528035    1.735643
C     -5.461495    0.551598    2.090217
C      0.026471   -0.244224    2.277752
C      0.235939    1.617740   -1.031496
C     10.056636   -0.587846   -1.342271
C      0.956264   -1.266236   -0.263492
C     -0.495929   -1.414113   -0.413975
C     -2.697058    1.469165    1.886325
C     -4.686170   -1.493810   -0.474148
C     -3.223313   -1.338904   -0.616946
C     -1.218116    1.734122    1.654275
C      3.731564   -1.110485   -0.832946
C      1.529816    2.105608    0.946556
C     -5.331897    2.075572    0.190807
C      4.089791    1.159709    2.037003
C      9.477385    0.709789   -1.820787
C      5.322435   -0.050910    3.735384
C      1.621462   -0.142877    0.062288
C      3.106365   -0.204639    0.163949
C     -3.320606    0.722556    0.762856
C     -1.226604   -0.264604    0.140546
C      2.856834    2.224890    0.263349
C     -5.452711   -0.246272   -0.188093
C    -10.011344    0.353885   -0.683795
C     -9.775307   -0.206023   -2.043766
C     -8.924088    0.009201    0.312391
C     -9.026072   -1.486390   -2.106384
C      5.055361    1.402910   -0.207997
C      5.708923    0.402102   -1.060873
C     -9.911054   -2.631590   -2.411002
C      8.012476    0.725404   -1.947197
C     -7.756257   -0.488276   -0.490507
C      5.208757   -0.988525   -1.055701
C     -2.655617   -0.591503    0.606366
C     -4.815851    0.745265    0.736933
C     -0.472173    0.583451    1.101826
C      0.765255    1.043258    0.290735
C      3.797718    1.048416    0.521286
O     -5.064272    3.157825    0.934409
O      4.957991    0.785755    4.576974
O      3.498918    3.344352    0.815967
O    -11.258286    0.002294   -0.154938
O     -9.211071    0.773554   -2.895488
O     -8.656173    1.028692    1.185692
O      4.888177    2.620827   -0.927754
O    -10.697515   -2.543108   -3.379039
O     -9.891431   -3.782981   -1.662360
O      7.531171    1.077478   -3.052526
O      4.930120    0.063102    2.433893
O     -6.692219   -0.704143    0.333253
O     -8.223643   -1.748782   -1.007593
O      7.124032    0.393404   -0.972801
H      9.021075   -2.143781   -0.226477
H      8.771618   -0.448243    0.435334
H     10.296748   -1.303323    0.649954
H     11.239251    0.785881   -2.995137
H      9.660822    0.603974   -3.926515
H     10.115770    2.219249   -3.200950
H      5.963907   -1.419835    5.265518
H      7.239823   -0.742398    4.217397
H      6.209248   -2.010577    3.533274
H      6.585802   -1.811248   -2.535549
H      5.292663   -0.714758   -3.185395
H      4.822000   -2.355878   -2.694670
H      5.223215   -2.675400    0.205169
H      6.398737   -1.464580    0.730899
H      6.715179   -2.542078   -0.726121
H     -2.061348   -2.396008    1.575557
H     -2.578001   -1.099514    2.740456
H     -3.750382   -2.006557    1.810649
H     -6.101904   -0.358068    2.125527
H     -4.744158    0.587181    2.927489
H     -6.159851    1.393560    2.262960
H      0.017368   -1.333858    2.068478
H     -0.533975    0.028884    3.197638
H      1.080092    0.078498    2.535876
H      0.950557    2.381207   -1.461794
H      0.181461    0.842175   -1.822770
H     -0.682723    2.214393   -0.904202
H     11.156614   -0.416713   -1.180516
H      9.996731   -1.386324   -2.113820
H      1.649849   -2.114861   -0.414094
H     -0.673166   -1.494706   -1.530705
H     -0.789544   -2.402859    0.005744
H     -3.113232    2.478765    2.083941
H     -2.789600    0.952995    2.887925
H     -5.069976   -1.900534   -1.458197
H     -4.999885   -2.277910    0.246989
H     -3.010968   -0.735312   -1.521097
H     -2.761934   -2.344842   -0.643762
H     -1.046566    2.637953    1.037662
H     -0.821369    2.024617    2.668692
H      3.256958   -1.081180   -1.839279
H      3.615483   -2.208964   -0.560964
H      0.993261    3.083005    0.736217
H      1.618891    2.048399    2.038790
H     -4.855313    2.225343   -0.824150
H     -6.413435    1.964709    0.032779
H      3.216026    1.074969    2.665331
H      4.569333    2.127427    2.220803
H      9.748643    1.484532   -1.044607
H      3.205382   -0.826069    1.131166
H     -3.026158    1.313614   -0.169191
H     -1.468509    0.394648   -0.754505
H      2.819473    2.293977   -0.830582
H     -5.732442    0.191981   -1.181192
H    -10.009038    1.466451   -0.769222
H    -10.790924   -0.395356   -2.503497
H     -9.326319   -0.895462    0.867473
H     -8.316192   -1.410135   -2.983538
H      5.790934    1.759812    0.582899
H      5.547839    0.755947   -2.132597
H     -7.541548    0.068012   -1.417827
H     -5.689103    3.308462    1.704434
H      3.510395    4.117103    0.225536
H    -11.125840   -0.636676    0.583465
H     -9.298219    1.652342   -2.436238
H     -8.837442    1.924622    0.772296
H      4.815670    2.411121   -1.893595
H    -10.139097   -4.703937   -2.053373
