125

C    -10.133458    2.221647   -1.819772
C     -8.694406   -1.193695   -2.682588
C     -4.781474   -5.380114    2.412530
C     -5.528074    2.529852   -1.211678
C     -4.571084    2.550820    0.992664
C      3.264030   -1.566257    0.287723
C      5.180070    0.990703    1.657397
C      0.231398   -2.019805    1.174648
C     -0.642619    1.592224    0.670320
C    -10.073528    0.752135   -2.141208
C     -0.961825   -0.929220   -1.413572
C      0.513715   -1.157700   -1.464943
C      2.515329    0.722687    1.831195
C      4.622270   -0.002437   -1.780988
C      3.147939   -0.184001   -1.735785
C      1.244455    0.068506    2.084703
C     -3.542664    1.164992   -0.820872
C     -1.726081   -0.065511    2.073861
C      4.366738    2.869395    0.462323
C     -3.637317   -2.391098    0.358661
C     -8.656523    0.278499   -2.366707
C     -4.215123   -4.518616    1.324712
C     -1.605448   -0.365240   -0.386741
C     -3.101738   -0.210075   -0.502305
C      3.020901    0.860002    0.441811
C      1.142285   -0.363014   -0.382114
C     -3.054732   -0.670315    1.987455
C      5.200096    1.006284   -0.841445
C      9.227934    0.734096    0.705204
C      8.854855   -0.585119    0.112887
C      8.554617    1.832821   -0.084044
C      8.824466   -0.544702   -1.394675
C     -5.215104   -0.648985    0.802456
C     -5.764981    0.550448    0.165397
C      8.398469   -1.865454   -1.862556
C     -7.872920    0.570671   -1.145633
C      7.500239    1.338829   -1.004457
C     -4.817428    1.626042   -0.183617
C      2.654554   -0.373715   -0.338091
C      4.428733    1.320370    0.369014
C      0.482031   -0.537288    0.942039
C     -0.916616    0.099942    0.829566
C     -3.716093   -0.876656    0.681453
O      5.623076    3.413370    0.504593
O     -3.764737   -5.119238    0.315201
O     -3.168807   -1.854521    2.770733
O      8.835867    0.771880    2.041321
O      9.890839   -1.485028    0.457669
O      9.556986    2.424173   -0.871808
O     -5.508868   -0.660484    2.184516
O      7.477928   -1.965278   -2.707700
O      8.985719   -3.026949   -1.396955
O     -8.414951    1.118307   -0.153775
O     -4.180837   -3.153312    1.407041
O      6.491264    0.593968   -0.482342
O      8.157671    0.504454   -1.945711
O     -6.523129    0.265441   -1.022980
H    -10.991675    2.689788   -2.387264
H     -9.218537    2.735199   -2.172082
H    -10.366324    2.422061   -0.750113
H     -8.476461   -1.827515   -1.823586
H     -7.979386   -1.349257   -3.542723
H     -9.688609   -1.493369   -3.110462
H     -5.512309   -4.792528    3.029758
H     -5.286960   -6.276759    2.012322
H     -3.986421   -5.740296    3.087059
H     -5.774696    1.972145   -2.111876
H     -6.344942    3.090800   -0.744975
H     -4.756411    3.297423   -1.493812
H     -3.788891    2.189082    1.682485
H     -4.307124    3.573198    0.588219
H     -5.549221    2.703065    1.492129
H      4.381982   -1.459116    0.150609
H      3.045267   -2.522512   -0.271280
H      3.138787   -1.664116    1.373185
H      4.814034    1.617383    2.500522
H      6.217369    1.363223    1.482230
H      5.277945   -0.067013    1.868301
H      0.939087   -2.357215    1.978083
H     -0.818428   -2.212867    1.472383
H      0.430347   -2.665662    0.327081
H     -1.378990    2.192575    1.285038
H     -0.559038    1.929029   -0.366733
H      0.327063    1.904745    1.137508
H    -10.717845    0.550670   -3.028492
H    -10.559436    0.211029   -1.284897
H     -1.529205   -1.252366   -2.281814
H      0.807760   -2.200776   -1.563309
H      0.810656   -0.669975   -2.452389
H      2.478244    1.772902    2.255155
H      3.349320    0.241512    2.424419
H      4.870576    0.246933   -2.860102
H      5.093649   -1.025242   -1.692565
H      2.913161   -1.079252   -2.360018
H      2.661790    0.714497   -2.169503
H      0.535433    0.690880    2.684563
H      1.432806   -0.793114    2.806201
H     -3.637875    1.241399   -1.951990
H     -2.826142    1.981597   -0.590452
H     -1.100389   -0.710481    2.768898
H     -1.750808    0.906273    2.664614
H      3.887277    3.184287   -0.509544
H      3.697519    3.167176    1.266478
H     -2.615874   -2.706304    0.120039
H     -4.275680   -2.591547   -0.543804
H     -8.284911    0.866107   -3.247326
H     -3.451611   -0.845482   -1.388765
H      2.383730    1.668792   -0.042590
H      0.927550    0.716274   -0.686710
H     -3.761960   -0.001073    2.585738
H      5.392475    1.918676   -1.488032
H     10.328162    0.825922    0.706610
H      7.927798   -1.022942    0.539259
H      8.240544    2.621065    0.621676
H      9.905917   -0.438945   -1.707340
H     -5.814605   -1.524986    0.410043
H     -6.515998    1.014141    0.874691
H      7.152948    2.195167   -1.635448
H      5.852419    3.825477    1.386916
H     -2.407984   -1.851327    3.431266
H      9.145278    1.638382    2.405863
H     10.235448   -1.297421    1.353151
H      9.594005    1.936762   -1.744424
H     -6.471021   -0.475943    2.311604
H      8.705516   -3.958964   -1.673437
