139

C     10.163280    5.075902   -1.145361
C      9.893928    2.284361   -1.924989
C      8.635065   -1.038197    1.401573
C      6.915304    0.335571    2.428122
C     -0.531434   -1.012462    2.302779
C     -3.299215   -1.670610    0.159771
C      1.844133   -3.042473    1.069615
C      3.061149   -0.418490   -1.395563
C      8.911990    4.280959   -0.914631
C      3.570277   -0.876425    1.644213
C      2.265410   -0.184492    1.732108
C     -0.670635   -2.361939   -0.496647
C     -1.789408    1.247783    1.459789
C     -0.375533    1.041961    1.064010
C      0.776310   -2.433023   -0.995550
C      6.296506   -1.936420    1.649561
C      3.580118   -2.778968   -1.438368
C    -12.792504    1.305346   -0.583564
C     -2.661508   -0.301008   -1.741125
C      6.905950   -3.546732   -0.753880
C      9.199740    2.813791   -0.696091
C      4.019393   -1.582102    0.611855
C      5.314565   -2.256611    0.557145
C    -11.507344    0.793153   -1.247978
C     -0.927409   -0.917882   -0.197147
C      1.330977   -0.621549    0.650414
C      4.991888   -2.583177   -1.876094
C     -2.771357    0.684667    0.466521
C    -11.423509   -0.684269   -1.016084
C    -10.281931   -1.213444   -1.866490
C     -9.238579   -0.139618   -1.894617
C     -7.511674    2.178492    1.798914
C     -6.197023    0.578375    0.543640
C     -7.434884    1.449990    0.461432
C     -6.226795    3.012711    1.884511
C      6.829822   -1.113801   -1.081922
C      6.874418   -0.103112    0.034281
C     -6.354492    3.843762    3.092870
C      7.915110    2.099223   -0.436162
C     -9.218144    0.963294   -0.929468
C     -4.970423    1.357161    0.875041
C      7.132342   -0.733581    1.378023
C     -0.130431   -0.469313    0.989568
C     -2.362427   -0.547491   -0.241143
C      1.726724   -1.924683    0.055065
C      3.098211   -1.695075   -0.584617
C      5.984929   -2.307322   -0.789643
O    -12.937768    2.689109   -0.800462
O     -1.847891    0.721521   -2.223920
O      6.170537   -4.703963   -0.521385
O      5.318525   -3.779984   -2.588713
O    -12.632712   -1.243209   -1.481762
O     -9.787391   -2.420207   -1.389244
O     -8.398283   -0.257194   -2.793921
O     -8.631101    2.998430    1.876341
O     -6.086892   -0.092096   -0.649802
O      6.488462   -0.436968   -2.247915
O     -5.556077    3.704532    4.038963
O     -7.359218    4.782499    3.187049
O      6.804092    2.658273   -0.400065
O    -10.473105    1.497099   -0.656187
O     -3.951847    0.478373    1.219921
O     -8.530742    0.651872    0.250863
O     -5.159622    2.156328    2.021962
O      7.974064    0.751532   -0.226875
H     10.424330    5.196408   -2.213763
H     11.036266    4.653055   -0.583730
H     10.017575    6.099215   -0.734067
H     10.959437    2.570838   -1.860215
H      9.486328    2.749077   -2.850308
H      9.843988    1.181186   -1.953236
H      9.005588   -1.345704    0.416303
H      8.756255   -1.938144    2.072028
H      9.205857   -0.223280    1.865085
H      7.803710    1.023053    2.371687
H      5.968074    0.892503    2.276148
H      6.945917   -0.099742    3.456880
H     -0.142142   -1.999965    2.575376
H     -0.186299   -0.329439    3.125287
H     -1.629695   -1.083349    2.434016
H     -2.802718   -2.618719    0.392878
H     -3.956613   -1.394149    1.009791
H     -4.032338   -1.933096   -0.660988
H      2.569143   -3.822333    0.705511
H      0.891935   -3.643241    1.154429
H      2.062403   -2.721656    2.091426
H      3.334212    0.483589   -0.843822
H      2.084460   -0.330368   -1.963871
H      3.783464   -0.437468   -2.267356
H      8.447992    4.670606    0.024357
H      8.255485    4.376840   -1.792228
H      4.288484   -0.841535    2.483781
H      1.818115   -0.253279    2.748316
H      2.502097    0.913865    1.621790
H     -0.846219   -3.056994    0.320295
H     -1.290952   -2.701376   -1.356555
H     -1.959928    2.358878    1.520195
H     -2.015952    0.908836    2.503531
H      0.279581    1.499001    1.834272
H     -0.228293    1.490264    0.060698
H      0.848340   -1.945265   -1.960156
H      0.982930   -3.518480   -1.158111
H      7.037605   -2.801393    1.725155
H      5.864976   -1.927336    2.654117
H      2.966559   -2.783882   -2.380489
H      3.511623   -3.815883   -1.064902
H    -13.683443    0.816614   -0.983935
H    -12.758539    1.137409    0.506115
H     -3.695894    0.031302   -1.904319
H     -2.475033   -1.191047   -2.339613
H      7.744760   -3.387974   -0.055844
H      7.380968   -3.692368   -1.748609
H      9.889747    2.729477    0.171620
H      5.050892   -3.350111    0.749308
H    -11.565849    0.973145   -2.335150
H     -0.427414   -0.347700   -1.047776
H      1.483097    0.151659   -0.171195
H      5.149440   -1.805939   -2.654051
H     -3.038105    1.534272   -0.229561
H    -11.320169   -0.957378    0.048444
H    -10.660666   -1.380823   -2.897827
H     -7.452357    1.440031    2.623182
H     -6.392131   -0.177500    1.335552
H     -7.249963    2.208541   -0.307761
H     -6.166504    3.647839    0.976897
H      7.881802   -1.467277   -1.272542
H      5.964913    0.529572    0.036057
H     -8.643395    1.815637   -1.395602
H     -4.658845    2.009453    0.039001
H    -12.140170    2.995328   -1.282150
H     -1.944287    0.723011   -3.209031
H      6.777955   -5.419760   -0.247543
H      4.951397   -3.713229   -3.526640
H    -13.026006   -0.701492   -2.216149
H    -10.151824   -2.670057   -0.508902
H     -9.417764    2.398810    1.878917
H     -6.131759    0.491547   -1.431136
H      6.105312    0.452734   -2.063412
H     -7.235657    5.666953    3.705364
