35

C      4.089252   -2.375131    0.403240
C     -1.494833   -2.318389   -1.711070
C     -3.320142    1.634955    0.739417
C     -3.083771    0.011715   -1.149648
C      3.040800   -1.328141    0.195509
C     -3.910787    0.906099   -0.357133
C     -2.048208    1.501837    1.030910
C     -1.813352   -0.107294   -0.841544
C      1.118427    0.650585   -0.224455
C      3.288927   -0.256083   -0.628727
C      1.823864   -1.401246    0.806944
C      2.359917    0.732807   -0.853283
C      0.852449   -0.413941    0.603059
C     -0.061860    1.504773   -0.243597
C     -1.500724    2.282336    2.174858
C     -1.175669    0.609716    0.257366
Cl     4.850607   -0.163693   -1.412428
Cl     1.423942   -2.728077    1.870012
O     -5.149565    1.031901   -0.645712
O      2.603089    1.812893   -1.680535
O     -0.109598    2.685814   -0.594175
O     -2.284810    3.127226    2.922497
O     -0.293919    2.152726    2.447421
O     -1.040179   -0.966005   -1.609885
O     -0.443619   -0.276365    1.111696
H      3.936624   -2.937826    1.328331
H      5.090574   -1.868686    0.373443
H      4.061093   -3.021194   -0.510592
H     -2.511818   -2.333006   -2.166996
H     -1.509144   -2.831360   -0.743512
H     -0.845085   -2.898040   -2.415638
H     -3.948403    2.322519    1.351351
H     -3.531320   -0.548630   -1.990340
H      3.457414    1.955445   -2.170154
H     -1.920170    3.849757    3.538173
