139

C     13.122753   -1.983472   -1.051995
C     10.987657   -0.361922    0.089517
C      5.935821   -2.494285   -3.149247
C      6.483571   -2.668809   -0.792427
C     -0.378099    0.390113    3.488153
C     -3.038136    1.982332    2.194912
C      2.711024    1.529631    2.684221
C      2.168081    0.977639   -1.064342
C     11.866143   -1.635091   -1.804018
C      3.243304   -1.022372    1.254077
C      1.977736   -1.048652    2.038166
C     -0.410041    2.446825    1.391750
C     -2.371991   -1.275158    2.033843
C     -0.901067   -1.254793    1.797920
C      1.056632    2.543398    1.145049
C      4.737793   -1.085122   -1.486909
C      3.765155    2.389344    0.120133
C    -13.000905    0.088776   -1.226157
C     -2.902818    1.687154   -0.215640
C      6.688242    1.287901    0.574624
C     10.667609   -1.484107   -0.892406
C      3.661554   -0.053790    0.483589
C      4.977466   -0.277242   -0.201203
C    -11.650031   -0.551411   -1.644422
C     -0.987990    1.086304    1.132827
C      1.111288    0.038017    1.475320
C      4.892754    2.176152   -0.820783
C     -3.114819   -0.261187    1.184825
C    -11.479239   -0.175361   -3.083082
C    -10.074545   -0.072011   -3.572173
C     -9.223138    0.451452   -2.476309
C     -7.859855   -0.271973    1.896438
C     -6.276025    0.200173    0.171134
C     -7.697334   -0.271133    0.366443
C     -7.041316   -1.485117    2.358457
C      6.554754    0.768685   -1.832150
C      7.104449   -0.599124   -2.001471
C     -6.586524   -1.186293    3.730822
C      9.489477   -1.168389   -1.731603
C     -9.406777   -0.139834   -1.128783
C     -5.368906   -0.774283    0.876711
C      6.066421   -1.687127   -1.865930
C     -0.272671    0.121083    2.037834
C     -2.460988    1.057712    1.119165
C      1.878243    1.323419    1.404959
C      2.873761    1.177139    0.275700
C      5.718400    0.941070   -0.565522
O    -14.021322   -0.297647   -2.058246
O     -2.430742    0.917929   -1.296814
O      5.943608    1.500447    1.716510
O      5.790932    3.266346   -0.628860
O    -12.211082   -1.081075   -3.868819
O    -10.032054    0.795363   -4.660567
O     -8.416261    1.317705   -2.660700
O     -9.184230   -0.435616    2.251930
O     -5.960771    0.260151   -1.178977
O      5.870346    1.240746   -2.948527
O     -7.409526   -0.887001    4.621990
O     -5.248404   -1.234682    4.045758
O      9.598862   -1.139989   -2.981536
O    -10.741995   -0.079551   -0.748843
O     -4.394468   -0.168637    1.667879
O     -8.625951    0.559193   -0.225557
O     -5.973254   -1.765475    1.570352
O      8.234158   -0.895536   -1.209123
H     13.592832   -1.014768   -0.748723
H     13.855429   -2.430469   -1.787042
H     12.913432   -2.652282   -0.211646
H     12.018194   -0.509284    0.458860
H     10.991495    0.577864   -0.497203
H     10.229299   -0.364763    0.905361
H      6.905847   -2.994757   -3.319914
H      5.170919   -3.287117   -2.938744
H      5.607886   -1.885757   -4.010727
H      7.124950   -3.489750   -1.230192
H      5.608706   -3.227133   -0.360986
H      7.113300   -2.209524   -0.012399
H     -0.305687    1.415545    3.829493
H     -1.307060   -0.024586    3.935837
H      0.433841   -0.189160    4.010900
H     -2.598135    1.837703    3.176981
H     -2.849725    3.024261    1.867051
H     -4.136790    1.829471    2.230298
H      3.108254    2.570801    2.737452
H      3.553609    0.846370    2.763938
H      2.047069    1.474877    3.598067
H      2.068925   -0.125161   -1.304473
H      2.843371    1.354842   -1.856569
H      1.227799    1.505834   -1.168456
H     11.646183   -2.413578   -2.571115
H     11.981187   -0.676097   -2.377666
H      3.850752   -1.942277    1.374181
H      1.490183   -2.022038    1.846518
H      2.216653   -0.963641    3.087277
H     -0.683071    2.822423    2.424801
H     -0.886753    3.249598    0.749346
H     -2.696951   -1.183547    3.084347
H     -2.705772   -2.312363    1.736132
H     -0.449896   -2.030583    2.435466
H     -0.721682   -1.496365    0.739238
H      1.226865    2.968017    0.154235
H      1.430867    3.350887    1.857787
H      3.992109   -1.890175   -1.321496
H      4.388251   -0.441757   -2.313910
H      4.126959    2.815641    1.065047
H      3.129427    3.198609   -0.335584
H    -13.261906   -0.191995   -0.186773
H    -12.867232    1.208870   -1.215448
H     -2.417393    2.677678   -0.382767
H     -3.972201    1.883819   -0.245357
H      7.283343    2.182590    0.294766
H      7.314087    0.388036    0.706831
H     10.507333   -2.437908   -0.338301
H      5.597062   -0.901256    0.456988
H    -11.775290   -1.657215   -1.536921
H     -0.664496    0.809375    0.081300
H      0.935184   -0.266470    0.394524
H      4.623520    2.265048   -1.896613
H     -3.177607   -0.765314    0.173328
H    -11.988508    0.826035   -3.264357
H     -9.740836   -1.074601   -3.882804
H     -7.383536    0.637797    2.271318
H     -6.223508    1.216555    0.651161
H     -7.777488   -1.305434   -0.022888
H     -7.770174   -2.333107    2.399146
H      7.430160    1.457928   -1.706921
H      7.474005   -0.653524   -3.070581
H     -9.094538   -1.208249   -1.179302
H     -4.766629   -1.249192    0.043392
H    -14.901999   -0.307158   -1.613722
H     -3.138466    0.946707   -1.990407
H      6.186534    0.899126    2.468826
H      5.644367    3.665278    0.263163
H    -12.660503   -1.718020   -3.289290
H    -10.821858    0.587275   -5.228476
H     -9.225491   -0.514530    3.226304
H     -5.651006   -0.651984   -1.483239
H      6.557585    1.568926   -3.603551
H     -4.850305   -0.821041    4.877035
