35

C      4.053157    2.489615   -1.478916
C     -2.417806   -1.954674   -2.645830
C     -2.889605   -0.188729    2.066158
C     -3.303963   -1.149673   -0.161918
C      3.048752    1.519683   -0.961361
C     -3.817870   -0.858014    1.169309
C     -1.671343    0.139355    1.724592
C     -2.094005   -0.823448   -0.502343
C      1.202982   -0.333968    0.016718
C      3.487112    0.277203   -0.556840
C      1.713769    1.821824   -0.875659
C      2.563569   -0.629416   -0.075351
C      0.762332    0.902063   -0.384988
C      0.041204   -1.068699    0.468513
C     -0.774630    0.815581    2.673973
C     -1.152595   -0.153861    0.377805
Cl     5.193403   -0.163866   -0.645594
Cl     1.189480    3.400077   -1.394416
O     -4.965423   -1.146483    1.548048
O      2.955170   -1.892059    0.343830
O      0.062460   -2.260106    0.860649
O     -1.170512    1.135466    3.960374
O      0.386280    1.118152    2.323514
O     -1.631658   -1.124587   -1.805069
O     -0.599634    1.004902   -0.219577
H      4.678571    2.805646   -0.602387
H      3.543732    3.389827   -1.879365
H      4.709736    2.025558   -2.214606
H     -1.886237   -2.065315   -3.607234
H     -3.361805   -1.417536   -2.844375
H     -2.552621   -2.960938   -2.224510
H     -3.180109    0.075956    3.093935
H     -3.985990   -1.656464   -0.860674
H      2.354607   -2.604005    0.703380
H     -0.490510    1.530933    4.610216
