28

C     -1.748750    0.462869    1.347387
C      3.474545    0.271496    0.379558
C      0.189132   -1.433682    0.496156
C      1.039063    0.950481    0.021994
C     -2.734962    0.758712   -0.960848
C     -0.671715   -0.787301   -0.567453
C     -0.204591    0.639308   -0.740997
C      1.645941   -1.485959    0.035413
C     -1.507088    0.417966   -0.128344
C      2.121518   -0.104920   -0.149769
O     -3.786983   -0.093451   -0.741064
O      1.980881   -0.979815   -1.197211
H     -0.960666    0.921387    1.937565
H     -2.700887    1.010040    1.608057
H     -1.904476   -0.570930    1.751221
H      4.040325   -0.631475    0.671373
H      4.053414    0.905106   -0.308978
H      3.309308    0.890074    1.299450
H      0.201422   -0.747809    1.392643
H     -0.189891   -2.412991    0.788994
H      0.875255    1.188316    1.089641
H      1.479344    1.892018   -0.420161
H     -2.460774    0.864817   -2.022838
H     -3.060446    1.776036   -0.593266
H     -0.995773   -1.380360   -1.422308
H     -0.193180    0.954251   -1.814671
H      2.284700   -2.234597    0.535137
H     -3.574668   -1.039588   -0.927132
