29

C      3.328561   -0.038987    0.228908
C     -3.215189    0.522821    0.642457
C      1.376641    1.334394   -0.556474
C      0.077195    1.309078    0.242625
C      1.131787   -1.057920   -0.010808
C      2.055088   -0.002517   -0.577812
C     -1.868010   -0.194086    0.713678
C     -0.902714    0.314074   -0.318304
C     -2.113000   -1.613139    0.328075
C     -0.184293   -0.948767   -0.738853
O     -3.117017   -2.325673    0.582770
O      0.024973   -0.908969   -2.108553
O     -1.011371   -2.031847   -0.383072
H      3.946112   -0.877572   -0.185014
H      3.906843    0.884795    0.177887
H      3.083172   -0.360305    1.273657
H     -3.168088    1.455361    1.232192
H     -3.952461   -0.169575    1.129064
H     -3.530309    0.709864   -0.398963
H      1.112401    1.644860   -1.599469
H      1.986434    2.145072   -0.130227
H     -0.367389    2.328001    0.136517
H      0.261026    1.098626    1.303405
H      1.574654   -2.054982   -0.218350
H      1.009052   -0.934733    1.070552
H      2.276092   -0.286419   -1.630328
H     -1.485479   -0.117545    1.742355
H     -1.447076    0.764566   -1.184712
H     -0.787633   -0.588474   -2.568797
