28

C     -1.479981    1.199805   -0.493576
C      3.248353    0.818631   -0.288995
C      0.143741   -1.219613   -1.376506
C      0.981993    0.471884    0.774835
C     -2.738145   -0.385475    1.068509
C     -0.633845   -1.237815   -0.118055
C     -0.165402   -0.435360    0.996183
C      1.590133   -0.847079   -1.218058
C     -1.470251   -0.064750    0.304756
C      1.997914   -0.020705   -0.207728
O     -3.063091    0.596587    1.991322
O      2.227049   -1.427479   -0.086855
H     -1.360412    2.117512    0.147673
H     -0.723561    1.268395   -1.271404
H     -2.481563    1.278310   -0.992007
H      3.081538    1.768604   -0.833860
H      3.593540    1.025590    0.733033
H      4.005394    0.235782   -0.874522
H     -0.286593   -0.519344   -2.151607
H      0.143115   -2.220523   -1.904050
H      1.534516    0.671183    1.736688
H      0.610435    1.482021    0.456014
H     -3.560280   -0.587256    0.349590
H     -2.584897   -1.328974    1.652305
H     -1.043775   -2.258333    0.147976
H     -0.273531   -0.842659    2.042263
H      2.159311   -0.943151   -2.186602
H     -3.451706    1.404211    1.602679
