22

C      1.855831    0.330484   -0.152968
C      0.715040    1.276199   -0.222456
C      1.489534   -1.113607   -0.246678
C     -0.405408   -0.452452    1.214872
C     -1.689090    0.876380   -0.367531
C     -0.481753    0.907670    0.567348
C      0.091264   -1.422055    0.165008
C     -1.908570   -0.507193   -0.866515
O     -3.083112   -0.838509   -1.228154
O     -0.835086   -1.366672   -0.915386
H      2.529844    0.552053   -1.032413
H      2.488461    0.568358    0.739255
H      1.081621    2.273810    0.162963
H      0.460723    1.486344   -1.298318
H      1.625705   -1.508804   -1.293135
H      2.168910   -1.765233    0.377650
H      0.172303   -0.469607    2.140598
H     -1.474097   -0.756223    1.422062
H     -1.472111    1.513374   -1.242312
H     -2.602670    1.221830    0.128687
H     -0.721281    1.652672    1.366633
H     -0.006058   -2.458819    0.580789
