62

C     -8.986029   -2.872993   -0.658360
C     -7.809063   -0.696498    2.096148
C     -0.509761    1.365484   -1.255797
C     -6.725107    0.124082    2.419237
C     -1.897426    1.496989   -1.083989
C     -6.815243   -1.235612   -0.021060
C     -0.464695    0.060289    0.706388
C      7.835971   -1.240242    1.995640
C     -3.504391    0.438644    2.548640
C      4.654296    0.487472    0.636612
C     -7.841559   -1.361025    0.890859
C      0.232142    0.639550   -0.356560
C     -5.703773    0.254687    1.522868
C     -2.571603    0.925658   -0.040119
C     -4.424663    1.057104    1.577644
C     -1.812925    0.186867    0.875469
C     -5.740482   -0.412294    0.317424
C      4.630381    1.328344   -0.651952
C      7.827017   -2.712656    2.043005
C      6.454465   -0.761855    1.797313
C      5.323137    0.578555   -1.766082
C      4.322780    0.413356   -2.887681
C      3.067180   -0.139682   -2.270811
C     -4.030376    1.032728    0.150956
C      2.452975    0.974502   -1.445957
O      6.750660   -3.332555    1.914669
O      8.990638   -3.415881    2.225975
O      5.588702   -1.146978    2.662338
O      6.430359    1.252162   -2.273215
O      4.807987   -0.397601   -3.913288
O      2.174181   -0.637984   -3.213539
O     -8.898749   -2.171262    0.556897
O     -2.542124   -0.369580    1.912790
O      5.988032    0.041094    0.802056
O      1.595280    0.475384   -0.471939
O     -4.607415   -0.131926   -0.422246
O      3.412172    1.844354   -0.948390
H     -9.954374   -3.407254   -0.756863
H     -8.936437   -2.174544   -1.536194
H     -8.154872   -3.613834   -0.794330
H     -8.639147   -0.819160    2.796131
H     -0.043799    1.844326   -2.106075
H     -6.751629    0.622530    3.386237
H     -2.483422    2.077912   -1.807212
H     -6.821702   -1.757957   -0.991716
H      0.125985   -0.512347    1.408101
H      8.292224   -0.806413    2.925434
H      8.520468   -0.897276    1.178081
H     -4.098549   -0.275464    3.193371
H     -3.029695    1.219817    3.188233
H      4.428512    1.153794    1.492719
H      3.915558   -0.311819    0.617458
H     -4.724718    2.089472    1.915479
H      5.299385    2.226451   -0.459487
H      5.587655   -0.454837   -1.443667
H      4.088862    1.426593   -3.283588
H      3.353431   -0.964437   -1.589026
H     -4.449038    1.920299   -0.405840
H      1.874235    1.574185   -2.176610
H      7.100640    0.540659   -2.502912
H      5.665176    0.002347   -4.218421
H      2.182274   -0.050924   -4.001247
