62

C      8.235239    3.627937    0.820861
C      7.693550    0.529775   -1.116345
C      0.055042   -1.144359    1.552124
C      6.774291   -0.461719   -1.397103
C      1.417986   -1.024693    1.555377
C      6.166952    1.589490    0.325243
C      0.064812   -1.470707   -0.761528
C     -5.738353    3.988426   -1.238641
C      3.477687   -1.024498   -2.103135
C     -4.999372    0.772771    0.625671
C      7.417902    1.572427   -0.256045
C     -0.688627   -1.375579    0.377025
C      5.521331   -0.449700   -0.818710
C      2.160360   -1.124922    0.387489
C      4.317848   -1.307087   -0.885560
C      1.467407   -1.349458   -0.771539
C      5.239363    0.584439    0.038926
C     -4.835842   -0.612483    0.073662
C     -5.900253    5.353061   -0.691578
C     -5.455795    3.034599   -0.129054
C     -4.777111   -1.606039    1.202365
C     -4.563870   -3.019666    0.717992
C     -3.579389   -3.052562   -0.428370
C      3.623546   -0.995632    0.396558
C     -2.889480   -1.706166   -0.591121
O     -6.143024    6.287994   -1.485601
O     -5.793255    5.632031    0.662913
O     -5.381261    3.410879    1.066907
O     -5.977343   -1.596799    1.912076
O     -4.124888   -3.765287    1.811824
O     -4.213677   -3.456275   -1.598628
O      8.395056    2.530805   -0.025204
O      2.160503   -1.457327   -1.961943
O     -5.271536    1.708659   -0.418040
O     -2.052280   -1.480742    0.476541
O      3.926758    0.410880    0.515422
O     -3.812861   -0.690885   -0.818231
H      7.201037    3.975695    0.803815
H      8.959793    4.421245    0.485470
H      8.565705    3.294055    1.847016
H      8.673642    0.490742   -1.589684
H     -0.456782   -1.053640    2.509341
H      6.975941   -1.289712   -2.072572
H      1.994110   -0.846495    2.459518
H      5.925285    2.397044    1.004408
H     -0.402966   -1.646208   -1.711629
H     -4.841091    3.930204   -1.919400
H     -6.595078    3.658825   -1.845285
H      3.961092   -1.429312   -3.014574
H      3.461719    0.091940   -2.236253
H     -4.102846    1.129363    1.158632
H     -5.901148    0.782781    1.299754
H      4.627254   -2.387208   -0.839613
H     -5.789611   -0.840810   -0.488497
H     -3.982504   -1.285017    1.904009
H     -5.515212   -3.460697    0.375577
H     -2.799327   -3.799698   -0.184828
H      4.088890   -1.552750    1.238986
H     -2.316605   -1.790186   -1.528198
H     -6.685404   -1.237539    1.289820
H     -3.297497   -4.285902    1.592312
H     -3.665814   -4.128310   -2.103690
