54

C     -6.040958   -0.981328   -0.072984
C      1.754306   -3.134094   -0.329203
C      2.224586   -1.714275   -0.405754
C      0.325704   -3.148277    0.223672
C      3.721390   -1.573987   -0.372455
C     -0.657653   -2.921522   -0.898184
C      4.082600   -0.281169    0.366517
C     -1.815493   -2.080969   -0.416641
C     -0.680640    1.916069    0.691068
C     -0.574270    3.348181    1.092313
C      3.797504    0.921138   -0.473402
C     -1.367985   -0.786019    0.195266
C     -2.148844    1.512247    0.785062
C      0.774536    3.955690    0.803003
C      3.113048    2.034221    0.329155
C     -4.741164   -0.403740   -0.508846
C     -2.424692    0.270575   -0.031771
C      1.329424    3.527805   -0.493159
O     -4.634766   -0.028873   -1.701260
O      0.651369    3.724418   -1.528197
O      2.563336    2.918521   -0.628401
O     -3.667098   -0.277571    0.370820
H     -6.805540   -0.168111   -0.172625
H     -5.964271   -1.272844    0.996001
H     -6.320555   -1.859320   -0.713842
H      2.403210   -3.737248    0.338905
H      1.725401   -3.598391   -1.335430
H      1.813950   -1.179463    0.483664
H      1.785385   -1.212477   -1.304996
H      0.167587   -4.121088    0.714808
H      0.185854   -2.349470    0.962455
H      4.105266   -1.549017   -1.415760
H      4.152827   -2.426707    0.153104
H     -1.059084   -3.925709   -1.173164
H     -0.132655   -2.465260   -1.740388
H      3.575243   -0.295840    1.336960
H      5.193900   -0.345803    0.540726
H     -2.383332   -2.660639    0.343992
H     -2.440281   -1.853916   -1.293667
H     -0.440449    1.865655   -0.410654
H     -0.020677    1.232914    1.222478
H     -1.408373    3.910450    0.642310
H     -0.719698    3.404506    2.197767
H      4.731371    1.368140   -0.870999
H      3.166285    0.663178   -1.350174
H     -0.379573   -0.457788   -0.185259
H     -1.268356   -0.938054    1.288119
H     -2.772406    2.345466    0.427130
H     -2.365509    1.329533    1.844641
H      1.499564    3.740308    1.628180
H      0.634689    5.076273    0.836074
H      3.909563    2.524241    0.910005
H      2.350265    1.614173    1.011495
H     -2.503840    0.545267   -1.099283
