47

C     -2.771480   -2.161031    0.258306
C     -3.093180   -0.113677   -0.799531
C      1.059418    2.441147    1.051245
C      1.431107    2.756281   -0.369762
C     -0.356006    1.962393    1.205422
C      2.076266   -1.795270    1.498955
C      3.383810   -1.694357    1.084126
C      0.812791    1.862728   -1.380713
C     -0.335561   -0.287622   -1.832009
C     -1.175356   -1.384965   -1.267678
C     -0.306541   -1.219582    1.395153
C      2.688358   -0.101596   -0.558601
C      1.062741   -1.046580    0.884634
C      3.710287   -0.848139    0.051348
C     -0.773165    0.948176    0.205488
C      1.393565   -0.205728   -0.143050
C     -1.317803   -0.321759    0.801417
C      0.324107    0.570537   -0.775612
N     -2.085954   -0.979181   -0.245137
O      5.027220   -0.745879   -0.367159
I      0.867086    0.000000    0.000000
H     -3.816418   -2.232442   -0.122807
H     -2.257395   -3.078960   -0.095607
H     -2.863905   -2.144283    1.364915
H     -4.040706   -0.689963   -1.024035
H     -2.809291    0.348725   -1.760315
H     -3.437733    0.659799   -0.054735
H      1.759266    1.721111    1.528927
H      1.169163    3.394517    1.632203
H      2.534876    2.713064   -0.451607
H      1.158147    3.815273   -0.641256
H     -0.432763    1.514408    2.232299
H     -1.009456    2.861984    1.228687
H      1.862267   -2.473112    2.315328
H      4.200974   -2.259017    1.535307
H      1.526515    1.707187   -2.208193
H     -0.083939    2.352587   -1.840070
H     -0.906497    0.361078   -2.494483
H      0.473474   -0.762373   -2.443864
H     -0.583327   -2.242247   -0.887821
H     -1.785890   -1.798192   -2.110847
H     -0.256484   -1.051190    2.504386
H     -0.559954   -2.294563    1.279756
H      3.006693    0.544277   -1.362973
H     -1.565510    1.401021   -0.428091
H     -2.036733   -0.004580    1.608053
H     -0.867086    0.000000    0.000000
