68

C     -9.326729    1.450550    1.352743
C     10.403951   -1.475057   -0.937236
C      1.622377   -0.747665    2.660739
C     -8.614643   -1.937022   -0.372771
C      9.179509   -0.001471    1.286355
C     -8.834029    0.067614    1.085331
C      9.079004   -0.784309   -1.071262
C      0.683278   -1.216481    1.841816
C     -3.867813    1.609861   -0.790372
C     -3.802655   -0.739239   -0.511548
C      3.145809   -0.955083    0.214245
C      3.323432    1.375471   -0.153060
C     -0.896070    1.228481   -1.178785
C     -5.217790    1.544902   -1.002527
C     -5.149836   -0.803003   -0.727397
C      4.532312   -1.058106    0.194865
C      4.705481    1.283248   -0.178857
C      0.492761    1.178175   -0.992674
C     -1.185054   -0.353586    0.560422
C     -8.464149    0.285136   -1.384729
C      7.567825    0.982585   -0.271778
C     -9.180441   -0.503053   -0.258701
C      8.999629    0.455788   -0.156968
C      0.193239   -0.395283    0.741153
C     -3.145389    0.493970   -0.545106
C      2.509646    0.264725    0.040468
C     -1.719322    0.467044   -0.413019
C     -5.920485    0.325029   -0.980852
C      5.322115    0.069821   -0.006685
C      1.051941    0.345385   -0.013679
O     -7.189309    0.319696   -1.183030
O      6.693759   -0.081480   -0.022075
H    -10.348491    1.426950    1.804129
H     -9.266903    2.079039    0.468714
H     -8.683845    1.864649    2.193408
H     10.546633   -2.170368   -1.811541
H     10.388352   -2.064880   -0.000814
H     11.254525   -0.767707   -0.929311
H      1.959726   -1.377911    3.460652
H      2.029699    0.236318    2.539070
H     -7.861818   -1.986043   -1.176507
H     -8.217983   -2.268076    0.594591
H     -9.421887   -2.646505   -0.647882
H      8.762084    0.784517    1.978258
H     10.275033   -0.029099    1.531318
H      8.670106   -0.957936    1.465788
H     -7.712142    0.096219    1.228505
H     -9.165695   -0.679427    1.843212
H      8.229324   -1.435884   -0.742073
H      8.882894   -0.519444   -2.120148
H      0.294823   -2.207093    2.010154
H     -3.351866    2.582556   -0.807503
H     -3.210554   -1.630316   -0.311103
H      2.523965   -1.843184    0.327898
H      2.857620    2.328908   -0.284860
H     -1.303457    1.871311   -1.921406
H     -5.757114    2.463257   -1.185827
H     -5.582384   -1.803132   -0.695087
H      4.981393   -2.039843    0.338575
H      5.351171    2.158463   -0.337985
H      1.144600    1.769497   -1.584527
H     -1.800417   -0.966639    1.192323
H     -8.839351   -0.129759   -2.377392
H     -8.942216    1.319496   -1.311872
H      7.395276    1.881639    0.320224
H      7.458342    1.303614   -1.351514
H    -10.247721   -0.553306   -0.437103
H      9.715925    1.213477   -0.453740
