36

C      0.229050    3.407937   -0.206044
C     -4.194322   -2.157147    0.255368
C     -3.449127    0.168801    1.029589
C      1.168924    0.900693   -1.344682
C      0.924795    2.523077    0.498163
C     -0.672128   -0.729399   -0.148601
C     -1.933508   -1.446679   -0.087599
C     -0.612674    0.690124    0.292904
C     -3.096664   -1.110534    0.378633
C      0.889095    1.090585    0.109886
O      3.520285   -1.941956   -1.033836
O      5.953933   -2.160891    0.206787
O      3.939736   -3.631332    0.884564
O      3.864060    1.602516    1.827726
O      3.811270    0.416383   -0.461739
O      1.565227    0.266104    0.949083
O      3.803138   -1.100366    1.623018
P      4.289805   -2.210044    0.467040
P      3.213201    0.328076    0.921434
H      0.219483    4.471560    0.034798
H     -0.363487    3.080418   -1.063423
H     -4.032199   -2.683034   -0.696241
H     -4.109640   -2.830633    1.122071
H     -5.148131   -1.613052    0.198989
H     -3.264920    1.057977    0.413742
H     -3.007887    0.251337    2.045007
H     -4.563404    0.203149    1.232668
H      0.256695    1.043705   -1.985807
H      1.883682    1.680003   -1.687442
H      1.574714   -0.084405   -1.606462
H      1.494459    2.901556    1.337596
H      0.106992   -1.324737    0.408788
H     -0.295637   -0.806947   -1.223043
H     -1.858899   -2.488896   -0.536544
H     -0.925926    0.923181    1.295118
H     -1.179993    1.312869   -0.450830
