44

C      5.018980   -0.902911    2.318210
C     -3.162431    3.049058   -2.148558
C     -4.311100   -0.840501    1.246310
C      3.085124    1.080403   -1.797183
C      4.353070    1.634361   -1.699909
C     -5.493649   -0.313001    1.139348
C     -1.916001   -1.006102    0.745325
C     -3.154867    0.735488   -0.311680
C      3.367254   -0.191917    0.182257
C     -3.130498   -0.351888    0.546146
C      2.597726    0.185327   -0.877844
C     -0.779211   -0.577850    0.104659
C      5.124792    1.255716   -0.636766
C      4.653741    0.361742    0.292496
C     -2.039333    1.199347   -0.975014
C     -6.616241   -0.876118    1.883405
C      0.639945   -1.042626    0.098236
C      1.233916   -0.349089   -1.050711
C     -0.847820    0.501257   -0.734878
C      0.705755   -2.522191    0.024737
O      6.395433    1.801562   -0.526479
O     -6.405102   -1.871713    2.618974
O     -7.867584   -0.302697    1.758109
O     -0.336723   -3.192788    0.001748
O      1.940912   -3.135533   -0.017975
O      5.463093    0.006358    1.348941
O     -2.051031    2.280554   -1.831288
O      0.402150    0.768248   -1.277090
H      5.874147   -1.103110    3.023663
H      4.680624   -1.818660    1.811990
H      4.188851   -0.479948    2.931077
H     -4.092796    2.432157   -2.153105
H     -3.293986    3.806286   -1.335203
H     -3.021603    3.599631   -3.090437
H     -4.187578   -1.710459    1.905150
H      2.488180    1.390881   -2.644235
H      4.733952    2.345914   -2.435280
H     -5.662434    0.547178    0.500231
H     -1.852942   -1.863665    1.410281
H     -4.101083    1.263083   -0.481081
H      3.069135   -0.883224    0.956001
H      1.057911   -0.658529    1.067949
H      1.171381   -0.981231   -1.983539
H      2.077941   -4.131857    0.093013
