26

C     -1.776734   -0.693346   -0.782857
C     -0.784741   -0.586517    1.319966
C      1.276628    1.061138   -0.641411
C      0.568492   -1.159555   -0.533094
C      1.796443   -0.332700   -0.297471
C     -0.203819    0.994802   -0.402504
C     -0.671261    1.970480    0.587205
N     -0.540854   -0.364879   -0.082497
O      2.253577   -0.373764    1.003630
O     -1.868312    2.337916    0.696039
O      0.241047    2.535031    1.465584
Cl     0.691465    0.000000    0.000000
H     -2.006340    0.065217   -1.567534
H     -1.668529   -1.676618   -1.266169
H     -2.642914   -0.689182   -0.088798
H      0.111441   -0.739202    1.916721
H     -1.386524    0.212474    1.789970
H     -1.389481   -1.527632    1.391633
H      1.784687    1.811796   -0.011465
H      1.542926    1.231057   -1.701984
H      0.456756   -1.249376   -1.654326
H      0.616567   -2.159073   -0.091457
H      2.610732   -0.647761   -0.963016
H     -0.688708    1.277593   -1.383609
H      2.368922   -1.297899    1.297443
H     -0.691465    0.000000    0.000000
