86

C      0.575536    1.132188    3.782199
C      7.280106   -2.138416    0.844847
C     -6.466243    0.049822    2.423899
C     -0.682995   -3.557405    1.763144
C     -5.956760    1.476721   -2.458844
C      0.080877   -0.079868    3.037973
C      5.581579    2.934527   -2.706017
C      6.867780    2.644414   -2.296449
C      4.531186    2.195490   -2.204382
C      7.120901    1.633421   -1.398478
C      0.484708   -2.500220   -1.175925
C      1.724320   -1.675683   -0.894883
C     -3.363433   -1.481694   -0.166239
C     -0.328095    1.472596   -0.727151
C     -3.712997    1.435176    1.030624
C      1.404779   -0.059587    0.991611
C      7.064111   -1.146728   -0.235153
C      4.753284    1.174264   -1.301591
C     -4.622112   -0.599762   -0.144682
C     -1.313009    1.427902    0.396461
C      6.049744    0.912628   -0.915014
C     -4.634465    0.267211    1.091471
C      0.009253    0.044382   -1.094898
C     -2.353039   -0.770845   -0.996059
C     -0.588659   -2.193658   -0.117705
C     -1.034284    0.033364    0.971637
C     -4.427552    0.270103   -1.340779
C      3.670796    0.374329   -0.750635
C      1.361222   -0.262650   -0.494348
C     -2.747996    1.523234   -0.072191
C     -1.020730   -0.772012   -0.338197
C     -2.938656    0.582605   -1.225242
N      6.349178   -0.123877    0.010325
N      0.188713   -0.037475    1.652911
O      7.628522   -1.332516   -1.479290
O      3.943058   -0.537371    0.069540
O     -2.855191    2.820700   -0.637738
O     -2.569355    1.119500   -2.457075
O     -5.958091    0.652582    1.279504
O     -0.102440   -2.456927    1.149909
O     -5.188888    1.435205   -1.295063
O      2.343449    0.570014   -1.088899
H     -0.310859    1.750923    4.034020
H      1.058067    0.859112    4.742330
H      1.238154    1.777248    3.173491
H      7.388808   -1.618404    1.835200
H      6.454886   -2.895492    0.897559
H      8.214838   -2.732805    0.694638
H     -6.394079   -1.065552    2.263846
H     -7.518436    0.332018    2.608205
H     -5.858828    0.253801    3.319125
H     -0.519119   -4.482391    1.171632
H     -1.772078   -3.419503    1.861181
H     -0.229416   -3.690547    2.775334
H     -6.579139    2.405435   -2.447233
H     -6.639113    0.622038   -2.556500
H     -5.304737    1.481350   -3.363725
H      0.687312   -0.942805    3.424871
H     -0.956357   -0.303446    3.379742
H      5.370729    3.743137   -3.424736
H      7.658277    3.250336   -2.716433
H      3.491761    2.370464   -2.483995
H      8.138549    1.431600   -1.099008
H      0.725229   -3.560828   -1.220525
H      0.039731   -2.200418   -2.143856
H      2.294757   -2.209249   -0.111550
H      2.325185   -1.687045   -1.821269
H     -3.031118   -1.691030    0.865359
H     -3.633885   -2.455399   -0.622016
H      0.581628    2.006890   -0.321025
H     -0.636056    2.086465   -1.591216
H     -4.348239    2.366450    1.124871
H     -3.127684    1.443065    1.999531
H      2.075362   -0.837071    1.415262
H      1.952949    0.906483    1.215290
H     -5.525018   -1.218297   -0.163681
H     -1.168238    2.218220    1.152189
H     -4.382213   -0.417552    1.928252
H      0.028333   -0.142990   -2.161776
H     -2.242239   -1.261587   -1.986687
H     -1.379182   -2.945220   -0.326654
H     -1.865185   -0.218478    1.622631
H     -4.604899   -0.328355   -2.258344
H      7.212275   -0.893178   -2.279851
H     -2.146765    3.414969   -0.353698
H     -2.912056    2.041956   -2.533907
