86

C      0.282060   -4.460203   -0.844783
C     -3.438116    3.099112    1.261953
C      6.491932   -0.501250    0.829078
C      1.706918   -1.878122   -3.443463
C      4.314863    3.742935    2.107466
C      0.695330   -3.270381    0.013931
C     -7.385353   -1.880675    0.730540
C     -7.609449   -0.893641    1.664604
C     -6.167419   -1.926834    0.096556
C     -6.604110    0.032743    1.946328
C     -0.719116    0.470186   -2.951599
C     -1.855839   -0.343943   -2.368513
C      3.002471    1.180449   -1.346870
C     -0.457401    0.303218    1.109385
C      3.249418   -0.155801    1.612830
C     -1.078603   -1.856524   -0.568458
C     -4.474724    2.065338    1.025050
C     -5.139461   -1.033710    0.340009
C      4.021017    1.369290   -0.245135
C      0.838759   -0.419353    1.222655
C     -5.399515   -0.060847    1.279118
C      4.276400    0.175782    0.590658
C     -0.643296    0.566115   -0.378361
C      1.656126    1.432932   -0.774200
C      0.621170   -0.048620   -2.458731
C      1.125898   -0.912651   -0.176178
C      3.293237    2.398068    0.623173
C     -3.886964   -1.160076   -0.370456
C     -1.592430   -0.480023   -0.894673
C      1.956476    0.551456    1.564578
C      0.717587    0.295080   -1.003491
C      1.915834    1.754234    0.663150
N     -4.352187    0.892188    1.553835
N      0.326141   -2.018524   -0.567351
O     -5.565950    2.409052    0.222121
O     -3.746049   -2.076793   -1.215763
O      1.606717    1.045771    2.849865
O      1.062644    2.766668    1.141028
O      5.506594    0.378006    1.249978
O      0.753599   -1.401235   -2.614415
O      3.876462    2.453864    1.889351
O     -2.804305   -0.318511   -0.177118
H     -0.091127   -4.137172   -1.829688
H      1.204253   -5.071455   -1.023622
H     -0.469936   -5.090945   -0.366591
H     -3.015695    3.017781    2.293282
H     -2.585043    2.989415    0.577594
H     -3.910755    4.117813    1.151028
H      6.218398   -1.561546    1.001818
H      6.760046   -0.295124   -0.227981
H      7.387593   -0.281314    1.446508
H      1.620940   -3.006992   -3.414202
H      1.588141   -1.618509   -4.511352
H      2.758097   -1.684856   -3.188731
H      4.791186    3.847155    3.114320
H      3.524814    4.510357    2.055208
H      5.061306    3.973114    1.290357
H      0.148198   -3.375865    0.976984
H      1.782703   -3.311810    0.260447
H     -8.189909   -2.574965    0.542900
H     -8.534190   -0.780710    2.212178
H     -6.023051   -2.720433   -0.637438
H     -6.742411    0.821193    2.672393
H     -0.822895    1.497912   -2.551517
H     -0.760517    0.553675   -4.054782
H     -2.787337    0.200568   -2.536865
H     -1.934970   -1.354023   -2.813552
H      3.213100    2.023092   -2.073001
H      3.141676    0.268144   -1.916527
H     -1.253435   -0.398497    1.496913
H     -0.556181    1.201706    1.722807
H      3.071351   -1.271377    1.536339
H      3.678726   -0.055783    2.655274
H     -1.496510   -2.249077    0.384680
H     -1.477086   -2.539974   -1.375794
H      4.963526    1.810437   -0.598837
H      0.842336   -1.235997    1.965016
H      4.487710   -0.684004   -0.115173
H     -0.999173    1.591021   -0.532931
H      1.164174    2.340389   -1.213139
H      1.378176    0.482556   -3.065717
H      2.173332   -1.179310   -0.306576
H      3.299457    3.341598    0.079156
H     -6.107839    1.648450   -0.157799
H      2.146328    0.547540    3.495313
H      0.975128    3.411052    0.393610
