70

C     -8.468878   -0.240606    1.888134
C      7.966756    0.519006    2.234182
C      1.640212    1.684571    0.628840
C     -2.168187    1.769506   -0.201483
C      2.330695    0.988064   -2.147329
C      1.048467    0.273194   -2.518726
C      3.918437   -1.265832    0.818395
C     -2.038374    0.441348   -2.533223
C      2.864167   -0.292116    1.337997
C     -3.461516    0.092099   -2.040876
C      4.303352    0.754216   -0.587072
C     -1.361719   -0.235231    0.982685
C     -5.045831    1.009858    0.707112
C     -7.265635    0.045874    1.057016
C      7.162213   -0.096752    1.175401
C      2.939964    0.315850   -0.968426
C      4.976826   -0.437408    0.113597
C      0.172887    0.312855   -1.282519
C     -1.180868   -0.170340   -1.457414
C     -0.134829   -1.103004    0.691433
C     -4.412814   -0.235958    0.265323
C      0.858949   -0.562629   -0.209453
C      1.989863    0.251378    0.248248
C     -2.004836    0.300405   -0.239366
C     -3.288858   -0.406374   -0.621111
O     -7.223723   -0.371029   -0.127459
O      7.633455   -0.852686    0.274669
O      0.283560   -1.573869    1.920365
O     -4.916964   -1.284554    0.717778
O     -2.963810   -1.789313   -0.788162
O     -6.181079    0.759695    1.541139
O      5.793962    0.136307    1.118565
H     -8.269407   -0.053345    2.962426
H     -8.688267   -1.331538    1.794222
H     -9.359549    0.307790    1.513418
H      8.913881   -0.051827    2.324641
H      7.425742    0.583153    3.203500
H      8.275101    1.568928    1.991093
H      1.833066    2.407608   -0.177094
H      2.290966    2.044669    1.482908
H      0.619999    1.825167    0.969699
H     -3.169870    2.050543   -0.580374
H     -2.079793    2.135389    0.862697
H     -1.465329    2.363583   -0.826604
H      2.253026    2.066286   -2.127280
H      3.031983    0.760007   -3.007185
H      1.247953   -0.731371   -2.885190
H      0.555823    0.874479   -3.302863
H      3.512442   -2.075591    0.226081
H      4.351013   -1.738217    1.749197
H     -1.908664    1.514201   -2.663095
H     -1.898606   -0.059544   -3.496504
H      2.382821   -0.663576    2.230338
H      3.485569    0.586599    1.703055
H     -4.028905    1.018692   -2.029180
H     -3.902736   -0.687423   -2.697604
H      4.219173    1.618547    0.104068
H      4.869343    0.995881   -1.489573
H     -1.177446    0.499291    1.793741
H     -2.115807   -0.939831    1.455105
H     -4.331667    1.549180    1.374157
H     -5.443096    1.649594   -0.109988
H      3.026331   -0.776826   -1.265600
H      5.521770   -1.065886   -0.593357
H      0.193136    1.369882   -0.966406
H     -1.307611   -1.267676   -1.544872
H     -0.600507   -2.021785    0.204931
H      1.287678   -1.418294   -0.821911
H      0.383255   -2.539207    1.984194
H     -3.698652   -2.141492   -1.343052
