37

C      3.894121    0.536878    0.526422
C      3.431090    2.796310    0.818902
C     -5.174240   -0.920431    0.289680
C     -0.816063   -1.450905   -3.134716
C     -1.351358   -0.221716    1.687620
C     -2.616306   -0.461698    1.195799
C     -0.421845   -0.706359   -0.445948
C      1.628444    1.229596    0.855253
C     -0.261563   -0.341796    0.876909
C      1.137444   -0.088777    1.354090
C     -2.814894   -0.826164   -0.115980
C     -1.689522   -0.944308   -0.930092
N      2.998671    1.459709    1.237871
O      1.878415   -1.163888    0.867522
O     -4.079212   -1.070755   -0.629680
O     -1.934575   -1.315612   -2.251487
Cl     0.683424    0.000000    0.000000
H      4.056929   -0.379257    1.095529
H      3.495887    0.412977   -0.498313
H      4.898075    1.035357    0.402408
H      3.442337    2.818434   -0.291218
H      2.821625    3.592865    1.245053
H      4.478835    2.970857    1.136876
H     -5.118795    0.116291    0.724907
H     -6.118131   -1.144998   -0.201983
H     -5.020567   -1.625552    1.149776
H     -0.225371   -2.364706   -2.892950
H     -1.164000   -1.521324   -4.195554
H     -0.120582   -0.584928   -3.048839
H     -1.188645    0.066394    2.717110
H     -3.487386   -0.363646    1.846425
H      0.424038   -0.812077   -1.117474
H      1.500877    1.337191   -0.235863
H      1.023976    2.030575    1.358354
H      1.115032   -0.076361    2.459292
H      1.377259   -2.018178    0.947699
H     -0.683424    0.000000    0.000000
