70

C     -8.682778    1.034324   -1.371167
C      8.283831   -0.786706   -2.272056
C      2.411495    1.730180    0.848995
C     -2.616571    1.061145    1.244984
C      2.377129   -1.384257    1.470363
C      1.276947   -0.743018    2.217224
C      4.002337    1.156480   -1.608670
C     -1.773770   -1.173927    2.506468
C      2.529458    0.938871   -1.475986
C     -3.159819   -1.535390    1.945340
C      4.382612   -0.352862    0.342510
C     -1.600077    0.301493   -0.869630
C     -5.324260    0.071757    0.078409
C     -7.443815    0.972961   -0.564488
C      6.819125   -0.881242   -2.087292
C      2.904973   -0.673420    0.296816
C      4.759376   -0.050646   -1.116312
C      0.226036   -0.059988    1.398042
C     -1.006794   -0.854146    1.286007
C     -0.269896    1.038350   -0.770423
C     -4.335684   -0.984952   -0.210367
C      0.683421    0.168749   -0.050716
C      2.105835    0.585441   -0.068333
C     -2.075504   -0.105420    0.471629
C     -3.088244   -1.223449    0.461390
O     -7.289702    1.825103    0.331786
O      6.135607   -1.783069   -2.634025
O     -0.410179    2.294424   -0.226551
O     -4.648555   -1.741282   -1.150364
O     -2.414268   -2.334588   -0.100663
O     -6.460309    0.018930   -0.762207
O      6.128932    0.025058   -1.298527
H     -9.470031    0.369726   -0.996543
H     -8.386574    0.756247   -2.419143
H     -9.021629    2.090169   -1.438278
H      8.500643    0.091416   -2.934348
H      8.668333   -1.700462   -2.765332
H      8.819709   -0.640457   -1.306459
H      3.019271    1.472938    1.721117
H      1.475543    2.217255    1.252029
H      2.936763    2.580063    0.322189
H     -1.907723    1.446743    2.029562
H     -2.723732    1.909404    0.542342
H     -3.541445    0.840478    1.811839
H      3.231109   -1.536872    2.196091
H      2.060916   -2.441516    1.224330
H      1.708149   -0.072783    3.003571
H      0.741259   -1.541663    2.813178
H      4.281930    2.090625   -1.128628
H      4.216125    1.219058   -2.714170
H     -1.348094   -2.085579    3.003124
H     -1.822640   -0.343699    3.207480
H      2.017752    1.893776   -1.753182
H      2.171919    0.173575   -2.196303
H     -3.333218   -2.644457    2.057799
H     -3.970168   -1.037559    2.470553
H      4.643245    0.463997    1.012216
H      4.908414   -1.286139    0.615252
H     -2.314792    1.003676   -1.306424
H     -1.460323   -0.585698   -1.505912
H     -4.832908    1.055945   -0.182185
H     -5.697140    0.084017    1.107161
H      2.777588   -1.342812   -0.606145
H      4.373934   -0.920767   -1.691533
H      0.033110    0.920299    1.877028
H     -0.774009   -1.769214    0.696912
H      0.083062    1.164419   -1.815007
H      0.627317   -0.858150   -0.518718
H     -0.409952    2.988049   -0.904303
H     -2.708602   -2.368743   -1.043350
