22

C     -0.603231   -1.039539    2.752651
C      1.825716    1.313055   -1.764580
C      0.177942   -0.848307   -1.678642
C     -0.890280    0.097469    1.737427
C      1.764632    0.478903   -2.841005
C      0.929196   -0.614160   -2.793470
C      1.044983    1.054391   -0.627952
C      0.202824   -0.017444   -0.537050
C     -2.398736    0.271259    1.781624
Cl     2.726479    0.768778   -4.282553
Cl     0.875216   -1.668282   -4.198564
Cl     1.154874    2.155619    0.736658
O     -3.151323   -0.626845    2.176453
O     -2.935279    1.474971    1.365104
O     -0.577049   -0.342599    0.502713
Na     0.000000    0.000000    0.000000
H     -1.330676   -0.977623    3.595158
H     -0.796356   -2.004522    2.243874
H      0.427945   -0.939516    3.095007
H      2.463782    2.178295   -1.757351
H     -0.475468   -1.712058   -1.654134
H     -0.435191    0.998155    2.148634
