48

C     -0.635405   -1.659854   -2.368071
C     -0.604005    3.443193   -0.766191
C     -2.301267   -1.981640   -0.355082
C     -3.474127   -2.271648    0.302155
C      1.597887    1.746368   -0.223966
C      0.334890    1.774013    0.602608
C      3.768525    0.723635    0.108791
C      2.851672   -1.789271    0.024664
C     -2.035602    1.783105    0.096502
C      6.388585   -1.695312    0.889946
C     -5.679088    0.160237    1.810288
C     -0.475862   -0.633339   -1.220314
C      2.403646    0.524457   -0.085394
C     -1.770327   -0.688073   -0.465722
C      1.918620   -0.754395   -0.131162
C     -2.422289    0.351959    0.092792
C     -4.134418   -1.204117    0.869955
C      4.678142   -0.295070    0.260614
C      4.198318   -1.570174    0.215881
C      0.553682   -1.169906   -0.320322
C     -3.623308    0.068741    0.767869
N     -0.729450    2.073821   -0.336864
O      0.167011   -2.163032    0.404914
O     -5.328342   -1.187448    1.589041
O      6.055077   -0.366496    0.461758
O      5.300960   -2.421189    0.392571
O     -4.524488    0.890576    1.440651
H     -1.709433   -1.838450   -2.581019
H     -0.193114   -1.282775   -3.304275
H     -0.196318   -2.633515   -2.069300
H     -0.873936    4.108460    0.094927
H     -1.241632    3.681674   -1.637368
H      0.454387    3.704937   -1.007187
H     -1.776327   -2.836706   -0.806738
H     -3.841710   -3.286629    0.359639
H      1.420180    1.932977   -1.315790
H      2.177775    2.632065    0.105574
H      0.165497    0.852046    1.180654
H      0.315786    2.603998    1.353332
H      4.179700    1.747904    0.148215
H      2.578680   -2.845741    0.009512
H     -2.168404    2.164106    1.155102
H     -2.800956    2.335376   -0.505147
H      6.402127   -1.764839    1.990120
H      7.354432   -2.012728    0.440960
H     -5.896830    0.315215    2.883868
H     -6.557017    0.438826    1.171501
H     -0.271926    0.294657   -1.724493
