86

C      3.521111   -1.642871   -1.008787
C     -3.455963   -1.616480    0.029436
C      3.605639   -0.367738   -0.251241
C     -3.519176   -0.212446   -0.470513
C      0.597713   -1.401545    0.054391
C     -0.510730   -0.593798   -0.710727
C      2.734691    1.554742    0.959995
C     -2.558943    2.025750   -0.378051
C      2.352500    0.297155    0.189443
C     -2.434640    0.683744    0.180205
N      1.395633   -0.518574    0.807649
N     -1.273783   -0.030252    0.316610
O      3.678511    2.268549    0.254359
O     -3.914935    2.452083   -0.364623
C      2.376591   -0.426359    1.051199
C      3.107252    0.546575   -0.999036
C      3.652808   -0.949687    1.220480
C      4.351438   -0.000146   -0.771415
C     -2.557925   -0.617188   -0.009601
C      2.109698    0.334358   -0.083542
C      0.756364    0.884446   -0.265290
N      4.619621   -0.737211    0.319794
N     -1.657615    0.503602   -0.084930
N     -0.349050    0.052749    0.033242
O      0.657453    2.064608   -0.675027
O     -4.546802    0.864048   -1.354429
O     -4.399888    0.888064    1.222385
O     -5.195464   -1.186915    0.091947
S     -4.238556   -0.011832    0.028016
C     -2.960619    0.843781   -0.904100
C     -2.359811   -0.540522    0.908640
C     -4.304501    0.643470   -0.639891
C     -3.720823   -0.730130    1.157882
C      2.469321   -0.700841   -0.325260
C     -1.960176    0.265706   -0.148139
C     -0.534127    0.463711   -0.424888
N     -4.666600   -0.141523    0.388524
N      1.838159    0.414955    0.325856
N      0.486022    0.241894    0.537849
O     -0.192650    0.850238   -1.567908
O      4.767493   -0.081852    1.088223
O      4.390486    0.889352   -1.345666
O      4.950768   -1.510455   -1.081039
S      4.203307   -0.316572   -0.500166
H      3.242020   -2.512235   -0.367992
H      4.612640   -1.887069   -1.278350
H      2.985138   -1.581422   -1.955280
H     -3.407882   -2.269895   -0.893911
H     -4.356718   -1.961132    0.568012
H     -2.598023   -1.844092    0.687659
H      4.313719   -0.536840    0.608301
H      4.207382    0.347755   -0.907846
H     -3.521641   -0.086908   -1.551493
H     -4.486387    0.214472   -0.114278
H      1.111163   -2.047190   -0.619593
H      0.035379   -2.054349    0.804078
H      0.058964    0.056008   -1.357617
H     -1.055938   -1.380219   -1.265448
H      3.103268    1.353332    1.975195
H      1.835186    2.224367    1.074822
H     -2.282664    2.065414   -1.458089
H     -2.011511    2.842624    0.117806
H      1.897007    0.729841   -0.807243
H     -2.858838    0.773155    1.255305
H      1.013982   -0.208317    1.731647
H     -0.973571   -0.254480    1.302021
H      3.251598    2.802290   -0.462586
H     -4.331897    2.316570    0.526019
H      1.596607   -0.594091    1.782389
H      2.961662    1.118676   -1.878725
H      3.843650   -1.554976    2.122204
H      5.159040    0.164065   -1.497791
H     -2.407595   -1.244744    0.884981
H     -2.468266   -1.280335   -0.903666
H     -1.812843    1.231501    0.642461
H     -0.191001   -0.932181    0.352849
H     -5.367178    1.440733   -1.228494
H     -2.666216    1.474064   -1.733612
H     -1.611958   -1.011530    1.525295
H     -5.056913    1.131962   -1.281130
H     -3.952108   -1.370051    1.996020
H      2.389112   -1.645738    0.248438
H      2.056842   -0.876370   -1.348504
H      2.149011    1.335784    0.019537
H      0.219128   -0.084449    1.521445
H      4.066854    0.455116    1.582591
