40

C      2.658657    1.370524   -1.059986
C      4.015137    1.233078   -1.241192
C     -1.885672   -2.237547    0.518099
C     -0.823859   -2.470768   -0.536419
C      0.568907    0.867813    0.197590
C      2.791845   -0.057284    0.855257
C     -3.826814   -0.651946    0.385028
C     -2.167532    1.258120   -0.634724
C      2.039539    0.713020    0.007086
C     -2.502427   -0.914645    0.191197
C     -1.635263    0.027524   -0.322304
C     -0.206092   -0.188369   -0.555488
C      4.782870    0.464711   -0.399916
C      4.164131   -0.177744    0.646512
C     -4.364338    0.595188    0.067993
C     -3.517016    1.545976   -0.444211
N      0.246473   -1.509846   -0.223762
O      6.152272    0.346011   -0.610283
O      4.925246   -0.966707    1.517741
O     -5.711850    0.799873    0.286928
O     -3.988754    2.803137   -0.778872
Cl     0.688845    0.000000    0.000000
H      2.046416    1.972990   -1.716827
H      4.478286    1.750711   -2.074673
H     -2.628113   -3.041082    0.572816
H     -1.376274   -2.080425    1.513304
H     -0.461568   -3.499231   -0.570659
H     -1.240511   -2.187309   -1.528421
H      0.363462    0.817322    1.292908
H      0.291998    1.870514   -0.137408
H      2.349332   -0.587835    1.701934
H     -4.447231   -1.446558    0.794221
H     -1.553076    2.031967   -1.035431
H      0.018643   -0.030066   -1.643033
H      0.334735   -1.550989    0.835710
H      6.705320   -0.209920   -0.000932
H      4.487046   -1.437846    2.280903
H     -6.141050    1.672267    0.076608
H     -4.942874    3.105373   -0.678424
H     -0.688845    0.000000    0.000000
