86

C     -4.729975    0.834609   -0.883367
C      4.830060    0.472522   -1.409736
C     -3.270295    0.594406   -0.742818
C      3.371531    0.864417   -1.190579
C     -0.623170    0.977275    0.440282
C      0.893089    0.712816    0.467249
C     -3.470493   -1.327717    0.848313
C      3.333745   -0.858841    0.568335
C     -2.829495    0.015766    0.575851
C      2.670999   -0.411076   -0.718449
N     -1.403204   -0.204424    0.604717
N      1.272773   -0.212104   -0.545378
O     -3.078937   -2.267187   -0.132246
O      2.789656   -2.053190    0.971459
C     -3.168754    0.448614    1.009868
C     -2.444032   -0.323848   -1.095568
C     -4.406664    0.677783    0.452864
C     -3.688849   -0.081853   -1.612295
C      2.528760    0.331836    0.129954
C     -2.137879   -0.071084    0.220388
C     -0.818573   -0.329559    0.797573
N     -4.651253    0.411156   -0.844462
N      1.617219   -0.740227    0.466130
N      0.321124   -0.487980    0.000987
O     -0.695683   -0.413765    2.045661
O      5.237241    1.146016    0.350657
O      4.081336   -0.237518    2.223297
O      4.636219   -1.381274    0.103429
S      4.147102   -0.083269    0.732994
C      2.953002   -1.115449   -0.325237
C      2.166248    1.038650   -0.696583
C      4.251488   -0.695265   -0.479795
C      3.462312    1.455136   -0.847572
C     -2.702428   -0.119184    0.853754
C      1.872963   -0.272953   -0.426598
C      0.543742   -0.774303   -0.325617
N      4.514760    0.608481   -0.744300
N     -1.705201   -1.118083    0.520675
N     -0.405109   -0.554349    0.732996
O      0.146175   -1.500697   -1.303954
O     -4.802709    1.500966   -0.157156
O     -4.390306   -0.816161   -1.186368
O     -2.778124    0.950247   -1.627869
S     -3.675332    0.333205   -0.563347
H     -5.148450    0.161820   -1.672765
H     -5.300410    0.796262    0.067380
H     -4.893790    1.854450   -1.283632
H      4.904904   -0.613404   -1.573158
H      5.187217    1.032262   -2.302358
H      5.459826    0.817650   -0.554613
H     -2.742901    1.591552   -0.865555
H     -2.919912    0.010392   -1.615005
H      2.959039    1.190227   -2.156206
H      3.292127    1.660309   -0.438120
H     -0.800481    1.692404    1.286241
H     -0.765601    1.488721   -0.561206
H      1.342204    1.697906    0.220440
H      1.193287    0.380046    1.494795
H     -3.043906   -1.697819    1.797960
H     -4.554286   -1.313730    0.961541
H      3.168737   -0.117900    1.386518
H      4.428146   -0.873073    0.386044
H     -3.091484    0.682318    1.407168
H      2.816910   -1.184297   -1.484187
H     -1.140843   -0.922649   -0.090854
H      0.690095   -0.275546   -1.376086
H     -3.735914   -2.996661   -0.213526
H      2.939201   -2.198514    1.961516
H     -2.978405    0.663266    2.050069
H     -1.629462   -0.734581   -1.705641
H     -5.251686    1.081810    1.014239
H     -3.846962   -0.316574   -2.676163
H      2.584138    0.502803   -0.961510
H      2.224028    1.267049    0.641187
H      1.964427   -1.672913    0.153882
H      0.224487   -0.411910   -1.032106
H      6.152121    0.756021    0.341974
H      2.780278   -2.184353   -0.111603
H      1.311298    1.708076   -0.788969
H      5.026665   -1.431366   -0.370242
H      3.675429    2.473783   -1.074545
H     -2.317165    0.711031    1.405368
H     -3.447817   -0.672261    1.549136
H     -1.762572   -1.883682    1.229403
H     -0.157886   -0.039051    1.554879
H     -4.559712    2.397580   -0.551238
