41

C      4.015115    2.339735   -1.028096
C     -4.418039    2.478019   -0.780097
C      4.650221    1.947454    0.125075
C      2.891257    1.645095   -1.416208
C     -3.049620    2.496053   -0.633099
C     -5.084170    1.270932   -0.803792
C      4.173322    0.894817    0.862200
C      2.428511    0.591204   -0.662340
C     -2.351702    1.309269   -0.510404
C     -4.352332    0.084725   -0.677414
C      3.044656    0.176222    0.497452
C     -2.992681    0.095949   -0.531182
C      1.083916   -0.930997    1.527768
C     -1.214782   -1.010676    0.729623
C      2.546839   -0.969517    1.319241
C     -2.212336   -1.141764   -0.394390
C      2.995665   -2.290345    0.723599
C     -3.039592   -2.381489   -0.270722
F      4.372889   -2.312540    0.696151
F      2.466838   -3.334282    1.451131
F      2.527107   -2.340139   -0.578246
F     -3.874768   -2.351539    0.824771
F     -2.148589   -3.439000   -0.081120
F     -3.664061   -2.629815   -1.457074
O      0.644771   -0.782740    2.692362
O     -1.666226   -0.862278    1.894616
O      3.158742   -0.835871    2.563760
O     -1.460277   -1.295593   -1.582107
O      0.136497   -1.047330    0.526176
H      4.389841    3.184329   -1.628054
H     -4.976177    3.423701   -0.878120
H      5.527769    2.482954    0.436304
H      2.389813    1.956224   -2.328358
H     -2.495506    3.438428   -0.610884
H     -6.164304    1.219042   -0.918321
H      4.661558    0.567058    1.779865
H      1.531925    0.041178   -0.979203
H     -1.260166    1.343924   -0.393954
H     -4.862475   -0.857234   -0.692855
H      2.848085    0.055468    2.917075
H     -1.197534   -2.228631   -1.731130
