41

C     -4.033212    2.184964   -2.058423
C      3.994429    2.627074    0.243060
C     -4.848321    1.284030   -1.434579
C     -2.676281    2.148456   -1.826793
C      4.736864    1.659786   -0.407307
C      2.794977    2.268302    0.801792
C     -4.328883    0.324519   -0.564183
C     -2.166038    1.208194   -0.973644
C      4.261402    0.384238   -0.476026
C      2.327229    0.952423    0.718582
C     -2.979613    0.298739   -0.342500
C      3.055551   -0.025018    0.073229
C     -1.150352   -1.214993   -0.138395
C      1.191805   -1.569982   -0.432523
C     -2.346664   -0.682012    0.564013
C      2.613721   -1.424599   -0.044097
C     -3.230838   -1.844877    0.922113
C      2.844392   -2.151410    1.289305
F     -3.600972   -2.533806   -0.219867
F     -2.417957   -2.729439    1.644193
F     -4.294504   -1.523052    1.717337
F      2.409231   -3.455580    1.108857
F      2.101981   -1.504809    2.263348
F      4.192990   -2.096557    1.575255
O     -1.352813   -1.870254   -1.190037
O      0.936987   -2.217386   -1.477739
O     -1.980179    0.024641    1.714506
O      3.454504   -2.075067   -0.956017
O      0.137599   -1.036077    0.287320
H     -4.405751    2.934514   -2.733422
H      4.374570    3.637146    0.295489
H     -5.906026    1.307814   -1.611270
H     -1.991110    2.856563   -2.310531
H      5.686547    1.960427   -0.845431
H      2.229260    3.041072    1.306504
H     -5.026305   -0.363932   -0.099766
H     -1.075031    1.215872   -0.818029
H      4.856890   -0.363846   -0.990560
H      1.388199    0.719371    1.169085
H     -2.751449   -0.071704    2.341867
H      2.973171   -2.283744   -1.786096
