39

C      3.442213    0.301057   -0.051012
C     -0.424920    1.048505   -1.524308
C     -1.475645    1.469923   -0.527165
C      0.760450    0.442983   -0.881454
C     -2.051115   -0.959124   -0.238265
C     -0.897757   -1.768755    0.350281
C      2.321240   -0.272402    0.749655
C     -1.925105    0.386080    0.379661
C      0.952566   -0.167584    0.267113
C     -0.091129   -0.768086    1.133478
N     -1.018017    0.284706    1.494982
O      2.539137   -0.844038    1.833067
C      0.411093    0.186704    0.309860
C     -0.485185   -0.678028   -0.141989
C      1.844437   -0.022331    0.173357
C     -1.922102   -0.451499    0.004018
O      2.332535   -1.039075   -0.383370
O      2.715878    0.919022    0.666913
O     -2.735876   -1.289692   -0.434894
O     -2.420977    0.678925    0.622334
H      3.138483    1.334701   -0.328899
H      3.617978   -0.311295   -0.960825
H      4.348680    0.339433    0.607348
H     -0.071426    1.992437   -2.019531
H     -0.821306    0.405426   -2.329832
H     -2.292527    1.951044   -1.101811
H     -0.990335    2.264180    0.111674
H      1.665256    0.513215   -1.475863
H     -2.002509   -0.926763   -1.334199
H     -3.021262   -1.457504    0.045456
H     -1.276072   -2.572626    1.029304
H     -0.326965   -2.228266   -0.460665
H     -2.933818    0.678999    0.784945
H      0.332433   -1.206219    2.050900
H     -1.498527    0.069971    2.395965
H      0.026163    1.071529    0.793704
H     -0.089055   -1.558224   -0.623560
H      3.647550    1.082914    0.315064
H     -3.324461    1.099753    0.365519
