67

C      8.392528    1.627153    1.672632
C     -8.354792    0.461305    2.020167
C     -1.762313    1.680866   -0.465690
C      2.455913    1.057538   -0.675578
C     -2.586802   -0.821585   -1.852722
C     -1.176899   -0.886266   -2.243789
C      1.784187   -0.834551   -2.787410
C      3.192817   -1.281883   -2.511314
C     -3.717280    0.905475    1.896424
C     -2.280678    0.632627    1.661774
C     -4.291558    0.218709   -0.394973
C      1.782448   -0.781942    0.865099
C      5.215208   -0.109863    0.540747
C      7.071633    0.915121    1.671780
C     -7.015463   -0.135141    1.795543
C     -2.932391   -0.484807   -0.463233
C     -4.693834    0.174640    1.056401
C     -0.180824   -0.294555   -1.307248
C      1.145345   -0.940682   -1.453511
C      3.422357   -1.145036   -1.011777
C      0.446995   -0.135349    1.086474
C      4.697570   -0.417525   -0.797147
C     -0.619234   -0.465276    0.149777
C     -1.871462    0.336582    0.264615
C      2.211014   -0.410175   -0.534586
O      6.504376    0.632990    2.772190
O     -6.744383   -1.338598    2.031914
O      0.380863    0.615726    2.043640
O      5.371317   -0.044834   -1.769671
O      6.479484    0.569986    0.464759
O     -5.984102    0.645960    1.299686
H      8.641644    1.912313    2.705459
H      9.206921    0.966191    1.313511
H      8.340132    2.570825    1.074969
H     -8.197596    1.549418    2.237203
H     -8.909640   -0.017944    2.847896
H     -8.993102    0.373171    1.094864
H     -1.982440    1.589221   -1.535507
H     -2.590702    2.321423   -0.041800
H     -0.832459    2.202853   -0.217973
H      2.403065    1.516922    0.333140
H      1.742947    1.592974   -1.309065
H      3.499383    1.272921   -1.049784
H     -3.098861   -1.797524   -2.111022
H     -3.108700   -0.079106   -2.529413
H     -0.869555   -1.958765   -2.415626
H     -0.999367   -0.408290   -3.253865
H      1.285537   -1.497072   -3.554031
H      1.766847    0.215179   -3.149983
H      3.887969   -0.605384   -3.072566
H      3.367916   -2.303840   -2.875428
H     -3.937490    0.645877    2.973866
H     -3.960058    2.002164    1.835979
H     -1.886775   -0.169607    2.340841
H     -1.734829    1.577656    1.964627
H     -4.980770   -0.408086   -0.997915
H     -4.146552    1.228439   -0.780689
H      1.577911   -1.884854    0.873264
H      2.523052   -0.519552    1.610927
H      5.383104   -1.025627    1.137872
H      4.517572    0.613808    1.018551
H     -3.058026   -1.403915    0.158750
H     -4.693383   -0.918598    1.341172
H     -0.113652    0.777486   -1.486075
H      1.039970   -2.032898   -1.212570
H      3.471656   -2.186252   -0.626090
H     -0.903708   -1.542543    0.331539
