26

C     -2.425511    1.210500   -0.595628
C     -2.193237   -0.688735    0.912771
C      0.275778    1.007701    0.504402
C      0.512845   -1.208068   -0.420977
C      1.584785    0.990532    0.730768
C      1.930211   -0.863945   -0.895103
C     -1.750100   -0.126723   -0.398989
C     -0.268422    0.080655   -0.493218
C      2.550841    0.104427    0.053044
O      3.250447   -0.649767    1.020714
H     -1.762148    1.852827   -1.197389
H     -3.353244    1.062783   -1.209617
H     -2.667126    1.712738    0.351045
H     -3.273698   -0.400454    1.057958
H     -2.198395   -1.809197    0.908883
H     -1.652138   -0.288119    1.780108
H     -0.327566    1.717615    1.079005
H      0.616507   -1.492385    0.657939
H      0.082134   -2.022768   -1.013147
H      2.020947    1.678051    1.476768
H      2.544968   -1.758020   -0.992843
H      1.817533   -0.411655   -1.920819
H     -2.044518   -0.821653   -1.205174
H     -0.066548    0.522387   -1.502663
H      3.322001    0.697097   -0.483455
H      3.473652   -0.095821    1.795618
