63

C     -1.751541    2.828675   -0.450374
C     -2.491098   -2.802836   -0.654752
C     -0.657435    2.149617    0.357463
C     -1.515429   -2.308257    0.390454
C      4.057711    0.952894    0.162240
C      4.239021   -0.308558   -0.196923
C      2.709946    1.140771    0.685388
C      2.962915   -1.002558    0.094722
C     -1.101659   -0.082473   -0.767795
C     -0.982042    0.684697    0.505299
C     -0.517008   -1.333171   -0.170368
C      2.043197    0.019893    0.660626
P      0.343030   -0.376479    1.172592
C      0.017791    3.533375    0.257178
C     -2.421824   -2.568333    0.606583
C     -1.170682    2.623163    0.024370
C     -1.082295   -2.046940    0.110459
C      3.969072   -0.570058   -0.298544
C      3.517899   -1.509357    0.511157
C      2.851663    0.158962   -0.860036
C      2.039727   -1.435594    0.516598
C     -1.982328    0.275455    0.262452
C     -0.804165    1.228477    0.481585
C     -1.337506   -0.765910   -0.630654
C      1.721514   -0.336553   -0.392197
P      0.092054    0.341308   -0.887274
Fe     0.000000    0.000000    0.000000
H     -1.478533    2.881607   -1.531538
H     -2.709652    2.265205   -0.402607
H     -1.929782    3.876499   -0.095144
H     -3.538061   -2.629931   -0.281165
H     -2.328469   -2.273475   -1.604308
H     -2.403702   -3.896218   -0.786408
H      0.276026    2.256797   -0.232853
H     -0.605751    2.600375    1.348360
H     -0.959211   -3.175074    0.788076
H     -2.064621   -1.825469    1.229442
H      4.832556    1.706345    0.062733
H      5.104880   -0.775961   -0.614001
H      2.305924    2.078532    1.048129
H      2.547160   -1.550652   -0.749465
H     -0.498909    0.352915   -1.595211
H     -2.161503   -0.199686   -1.100319
H     -1.913863    0.583640    1.117914
H      0.185903   -1.837663   -0.891005
H      0.872857    3.278216   -0.398688
H      0.293102    3.459745    1.331186
H     -0.262955    4.573100    0.031436
H     -2.413936   -3.679331    0.660499
H     -2.627678   -2.136894    1.605071
H     -3.202852   -2.213125   -0.096983
H     -2.021377    3.044665    0.596891
H     -1.413100    2.578149   -1.067061
H     -0.626437   -2.819731   -0.509618
H     -0.464147   -1.864342    1.007301
H      5.029507   -0.368386   -0.516338
H      4.156254   -2.193455    1.056757
H      2.979948    0.989350   -1.563518
H      1.669285   -2.388874    0.040881
H     -2.837303    0.736572   -0.244217
H     -2.319570   -0.131551    1.245780
H     -0.336489    1.157347    1.465388
H     -1.886031   -0.949450   -1.581290
