63

C     -3.011144   -2.329704    0.264192
C     -1.094963    3.278683    0.291801
C     -1.720533   -2.095710   -0.480452
C     -0.005605    2.331962   -0.190010
C      3.909530   -1.331499    0.337556
C      4.150241   -0.033784    0.357952
C      2.585975   -1.565299   -0.169390
C      2.946884    0.666949   -0.155202
C     -1.567596    0.361199    0.165281
C     -0.906590   -0.976714    0.126978
C     -0.677469    1.136978   -0.775337
C      1.997830   -0.415426   -0.466371
P      0.312321   -0.338583   -1.133091
C      3.645055    1.018565   -0.621027
C     -1.148076   -3.026174   -0.798544
C      2.886700    0.106288    0.293527
C     -0.971190   -2.039040    0.334031
C     -3.337646    1.801586   -1.038128
C     -2.677860    2.839418   -0.546578
C     -2.423687    0.689913   -1.262095
C     -1.247796    2.464386   -0.412742
C      0.614847   -0.334780    1.344100
C      1.443127    0.523863    0.446638
C      0.366505   -1.334796    0.248200
C     -1.202471    1.042314   -0.909009
P      0.341992    0.069313   -0.966967
Fe     0.000000    0.000000    0.000000
H     -2.867630   -2.281764    1.360743
H     -3.843100   -1.694944   -0.093642
H     -3.317125   -3.386000    0.043070
H     -0.759219    3.880237    1.158965
H     -1.988171    2.677180    0.559274
H     -1.422988    3.947742   -0.555820
H     -1.980281   -1.914832   -1.540276
H     -1.141032   -3.039369   -0.434397
H      0.563884    2.849819   -0.957320
H      0.588242    2.031466    0.695859
H      4.620715   -2.098909    0.661033
H      5.082007    0.391690    0.699943
H      2.168365   -2.579726   -0.275552
H      3.247345    1.228245   -1.066328
H     -1.487652    0.794277    1.203563
H     -2.650326    0.374417   -0.113427
H     -0.456808   -1.316930    1.074760
H     -1.275108    1.448349   -1.680498
H      3.236841    2.048177   -0.558866
H      4.726568    1.096218   -0.349438
H      3.587648    0.702612   -1.692332
H     -1.432130   -2.512353   -1.747766
H     -0.216523   -3.583686   -1.015056
H     -1.966409   -3.732121   -0.536703
H      2.947021   -0.917493   -0.136640
H      3.402607    0.071043    1.261261
H     -1.799131   -1.302762    0.300742
H     -1.084620   -2.581066    1.305853
H     -4.412170    1.843793   -1.223735
H     -3.048696    3.816596   -0.268934
H     -2.717189   -0.266321   -1.656652
H     -0.950715    2.426148    0.649347
H      1.154230   -0.731570    2.228363
H     -0.319795    0.187751    1.644727
H      1.370634    1.603675    0.662851
H      1.232328   -1.989498    0.126771
