116

C     17.369102    0.740153   -0.157268
C    -17.402847    1.389213   -1.093340
C     15.851775    0.814810   -0.024049
C    -15.973691    1.542996   -1.560837
C     15.348492    1.759498   -1.078016
C    -15.067211    1.810796   -0.369137
C     13.846636    1.937148   -1.023864
C    -13.632729    1.982859   -0.797544
C     13.069851    0.675498   -1.239229
C    -12.793162    2.270496    0.432866
C     11.581117    0.853159   -1.180045
C    -12.873162    1.109326    1.341761
C     11.137610    1.323538    0.161752
C    -11.827224    0.426138    1.695031
C      9.642132    1.540247    0.282887
C    -10.443730    0.673093    1.282099
C      8.872319    0.305364   -0.039937
C     -9.963592   -0.515856    0.567649
C      7.385968    0.497412    0.125936
C     -9.552926   -0.479707   -0.680472
C      7.072349    0.799048    1.593414
C     -9.527447    0.723173   -1.481329
C      7.523663   -0.384692    2.436507
C     -8.194014    1.080758   -2.004322
C      6.793024   -1.654806    2.102608
C     -7.065606    1.346725   -1.100618
C      5.347832   -1.565927    2.471637
C     -6.570981    0.243449   -0.236266
C      4.595058   -2.830226    2.073634
C     -6.114318   -0.959141   -1.041162
C      4.538559   -2.979701    0.584455
C     -5.648408   -2.102333   -0.234367
C      3.746188   -1.822807   -0.041411
C     -4.473469   -1.979176    0.642808
C     -0.296776   -3.052509   -0.758781
C      0.159931   -0.895786    0.579354
C     -0.749401   -1.764190   -0.161401
C      2.347173   -1.885827    0.455339
C     -3.209175   -1.717670   -0.087323
O      0.845414   -2.975230   -1.522106
O      1.977593   -2.878870    1.139202
O     -3.248685   -1.258237   -1.242622
O      1.481137   -0.832810    0.143401
O     -1.997266   -1.979539    0.478832
H     17.773706    1.708165   -0.541855
H     17.782800    0.546975    0.850653
H     17.639917   -0.090635   -0.825660
H    -17.823653    2.340710   -0.697719
H    -17.402120    0.656484   -0.262329
H    -18.027844    0.959373   -1.908560
H     15.550352    1.193059    0.957353
H     15.470911   -0.222988   -0.188261
H    -15.660343    0.594505   -2.036767
H    -15.899562    2.406326   -2.230841
H     15.623353    1.402148   -2.074289
H     15.790038    2.756219   -0.870342
H    -15.392560    2.680440    0.235764
H    -15.179177    0.908907    0.303602
H     13.512415    2.661061   -1.819393
H     13.535234    2.409384   -0.069060
H    -13.494729    2.725347   -1.578755
H    -13.273980    0.957713   -1.131316
H     13.302193    0.220739   -2.241367
H     13.343835   -0.047659   -0.416966
H    -13.317550    3.172234    0.904369
H    -11.797823    2.607759    0.166464
H     11.216720    1.554430   -1.964363
H     11.136394   -0.135250   -1.457386
H    -13.886875    0.824196    1.749236
H     11.467850    0.654928    0.990333
H     11.633112    2.315934    0.362453
H    -11.979489   -0.435093    2.380220
H      9.489721    1.940505    1.302385
H      9.403099    2.380337   -0.413082
H     -9.866416    0.724035    2.302207
H    -10.332377    1.625921    0.803109
H      9.107086    0.053922   -1.116739
H      9.196230   -0.569657    0.558938
H     -9.963091   -1.459655    1.139486
H      7.128127    1.439822   -0.433349
H      6.793163   -0.313152   -0.290063
H     -9.212276   -1.413135   -1.184803
H      7.648887    1.671819    1.891979
H      5.991923    0.903430    1.704291
H    -10.065552    1.609234   -1.082065
H    -10.160108    0.478085   -2.420765
H      7.199222   -0.114226    3.486996
H      8.620562   -0.483704    2.471308
H     -7.827753    0.278492   -2.741056
H     -8.262963    1.980413   -2.698946
H      6.974642   -1.984728    1.058151
H      7.283429   -2.462318    2.729225
H     -6.188854    1.647369   -1.753348
H     -7.213874    2.267061   -0.465610
H      4.860006   -0.690749    2.066488
H      5.286803   -1.531627    3.583005
H     -5.619042    0.649937    0.248047
H     -7.181878   -0.086079    0.587040
H      3.645171   -2.823459    2.596309
H      5.205068   -3.678806    2.504679
H     -6.951266   -1.292126   -1.697312
H     -5.322572   -0.647492   -1.763033
H      5.508058   -3.010328    0.094299
H      3.956398   -3.882544    0.327028
H     -6.544383   -2.428569    0.397768
H     -5.436710   -2.953646   -0.962485
H      4.223811   -0.848913    0.141060
H      3.684229   -1.959236   -1.146051
H     -4.574543   -1.209826    1.441967
H     -4.360410   -2.953959    1.194421
H     -1.155146   -3.395867   -1.423354
H     -0.224275   -3.875985   -0.008293
H      0.117840   -1.027660    1.694777
H     -0.226889    0.178749    0.460348
H     -1.073471   -1.168199   -1.120601
H      0.890148   -2.181977   -2.085299
