54

C      6.660768   -0.226877   -0.864992
C     -5.029668    2.898142    0.672521
C     -2.940528   -2.960929   -0.781407
C     -1.289757   -1.588000   -2.063325
C      5.269470    0.003985   -1.362574
C      4.307427    0.418175   -0.286561
C      4.197538   -0.631315    0.799372
C      3.241301   -0.228528    1.880047
C     -4.615639    1.049625   -0.855416
C     -3.893162   -0.126985   -1.436280
C     -2.966488    1.436021    0.944536
C      1.347074    1.263702    1.207117
C     -4.226640    1.742040    0.181144
C      1.859176   -0.004562    1.380905
C     -2.095872    0.682921   -0.045341
C     -2.880884   -0.555652   -0.411166
C      0.063545    1.478902    0.743538
C     -0.741189    0.402488    0.441489
C      1.010446   -1.060389    1.062784
C     -0.263105   -0.877487    0.602483
C     -2.045669   -1.718088   -0.791049
O     -0.370615    2.794023    0.598137
O      1.518833   -2.328010    1.235195
O     -1.118080   -1.923363    0.281652
H      6.865896   -1.292511   -0.613531
H      6.902027    0.403209    0.008975
H      7.366508    0.030491   -1.698405
H     -6.074391    2.861202    0.305904
H     -4.515802    3.853488    0.382570
H     -4.976735    2.879440    1.790130
H     -3.547494   -2.951803    0.144441
H     -3.622929   -2.914082   -1.639470
H     -2.296598   -3.856621   -0.763039
H     -1.341948   -0.585503   -2.526649
H     -0.238537   -1.948849   -1.984710
H     -1.779769   -2.278373   -2.811905
H      4.912645   -0.888981   -1.910736
H      5.305738    0.853018   -2.100799
H      3.307976    0.544334   -0.749233
H      4.601725    1.380517    0.145908
H      5.175880   -0.823693    1.276402
H      3.846469   -1.593168    0.367879
H      3.220525   -1.001081    2.674887
H      3.603552    0.699868    2.376825
H     -5.550216    1.356879   -1.341073
H     -4.619282   -0.957504   -1.640419
H     -3.396774    0.220363   -2.351748
H     -3.262612    0.676706    1.715124
H     -2.509346    2.317837    1.376350
H      1.969089    2.132044    1.441117
H     -2.008098    1.350489   -0.937377
H     -3.484989   -0.876950    0.489861
H      0.199140    3.589825    0.812428
H      0.950072   -3.120432    1.021401
