70

C     -2.222479   -1.855282    1.689028
C     -2.249056    1.200969   -2.094840
C      2.577208    1.059398   -1.803408
C      2.430045   -1.620410    2.660789
C     -0.706340    3.948515    1.041739
C      0.626389    4.070321    1.380088
C     -1.166148    2.710985    0.645256
C      1.456914    2.996101    1.321800
C     -2.426447   -0.522938    1.036099
C     -1.636665   -0.063790   -1.603946
C      3.049740    0.131932   -0.737988
C      1.815382   -1.256356    1.306897
C     -0.322666    1.636592    0.589940
C      1.023475    1.718692    0.922110
C     -3.450543   -0.601837   -0.067467
C     -2.765246   -1.036978   -1.316534
C      2.704656   -1.296744   -0.978823
C      2.604756   -2.061340    0.277485
O     -4.395817   -1.591088    0.242596
O     -3.671161   -0.917465   -2.366730
O      1.612217   -1.461205   -1.832663
O      3.857234   -2.435410    0.792839
P     -0.914550    0.023116    0.074788
P      2.213602    0.423168    0.895931
C     -1.006198   -0.281615   -0.066320
F     -1.116421   -0.740430   -1.358647
F     -0.956989   -1.340141    0.819662
F     -2.039828    0.587013    0.213027
O      1.747394   -0.455118   -0.366018
O      0.510500    1.777175   -0.919033
O      0.769279    1.059956    1.450884
S      0.526770    0.648206    0.036791
C      1.003454    0.225278    0.098685
F      1.982301   -0.432722    0.791830
F      1.023248    1.555747    0.465832
F      1.319932    0.167817   -1.235711
O     -1.682219    0.485925   -0.583032
O     -1.064835   -0.328347    1.767259
O     -0.703380   -1.844808   -0.179127
S     -0.603282   -0.444458    0.342842
H     -1.469660   -2.478264    1.138210
H     -3.175840   -2.426581    1.799746
H     -1.790204   -1.679949    2.707437
H     -3.266301    1.410052   -1.774373
H     -1.536618    2.050505   -1.877637
H     -2.280291    1.177419   -3.225530
H      3.452793    1.257464   -2.489222
H      2.238401    2.028483   -1.347159
H      1.791639    0.606886   -2.426466
H      3.555299   -1.558720    2.591499
H      2.147528   -0.799667    3.355042
H      2.087048   -2.595816    3.023604
H     -1.393585    4.792562    1.079372
H      0.953890    5.060239    1.687906
H     -2.199611    2.559790    0.370005
H      2.502299    3.164811    1.604268
H     -2.657559    0.286158    1.761777
H     -0.966119   -0.525877   -2.354800
H      4.144593    0.258856   -0.578650
H      0.802577   -1.613868    1.305554
H     -4.011814    0.321413   -0.227061
H     -2.379252   -2.083070   -1.237416
H      3.577061   -1.736850   -1.550531
H      2.072103   -3.011715    0.063750
H     -4.957609   -1.741947   -0.576960
H     -3.585952   -1.719796   -2.920860
H      1.713308   -2.291786   -2.336694
H      4.587375   -1.909681    0.360202
H      1.565492   -1.255045    0.189655
H     -1.275219    0.615568   -1.468578
