27

C      3.503063   -1.142293    0.537089
C     -2.284353   -1.033571    1.206331
C     -2.188270    1.834487    0.299119
C      2.123537   -0.887719   -0.015741
C     -2.267676   -0.608734   -0.228199
C      2.037962    0.512478   -0.590458
C      0.645204    0.705252   -1.123577
C     -1.557082    0.702680   -0.455378
O     -0.241619    0.543555   -0.064681
H      3.435708   -1.653574    1.521896
H      4.034722   -1.776298   -0.198919
H      4.032230   -0.178796    0.590627
H     -2.059178   -2.130243    1.302237
H     -3.319718   -0.872368    1.618304
H     -1.568477   -0.502389    1.848108
H     -1.444297    2.682906    0.293983
H     -3.082462    2.235842   -0.241830
H     -2.411483    1.601354    1.346310
H      1.867767   -1.617706   -0.836499
H      1.356061   -0.990814    0.786540
H     -3.271815   -0.564872   -0.684230
H     -1.690132   -1.379855   -0.815083
H      2.177052    1.249111    0.233129
H      2.817915    0.650691   -1.363459
H      0.600539    1.749015   -1.536300
H      0.389992   -0.055834   -1.890988
H     -1.635188    0.927694   -1.538333
