68

C     -1.578473    6.473023   -1.076861
C     -6.093730   -2.948944   -0.631977
C     -3.213839   -2.368968    3.613681
C      9.299732   -2.000715   -0.518361
C     -1.347629    5.473932    0.040034
C      2.453854    0.609919    0.938854
C      1.941710   -0.478901   -1.144054
C      3.639087   -0.135854    0.950902
C      3.153902   -1.208012   -1.068789
C     -2.281197   -0.788480   -2.303987
C     -2.051430    2.242902    0.509750
C     -3.226466   -1.017644   -3.253153
C     -1.601062    1.130684    1.399054
C     -4.231827   -2.355584    0.945824
C      0.394684    2.533993    0.137724
C     -0.836139   -0.881489    0.310869
C     -4.771411   -2.373508   -0.345429
C      1.604173    0.416238   -0.126343
C      3.998638   -1.034884   -0.014146
C     -0.881768    3.238595    0.452948
C     -2.769928   -1.308958   -1.080840
C     -2.214361   -1.279134    0.214336
C      0.271062    1.079649   -0.111002
C     -2.994678   -1.822244    1.218655
C     -4.007381   -1.828412   -1.343356
C      5.199956   -1.832971    0.097797
N     -4.270169   -1.628027   -2.695416
N      6.477230   -1.596504   -0.451800
N     -0.487532    0.368799    0.966003
O      5.065285   -2.896372    0.810040
O      7.670613   -3.199327    1.312060
O      7.535029   -3.953530   -1.032440
O     -2.589768   -1.865653    2.535055
O     -1.130088    4.239205   -0.453169
S      7.732843   -2.729254   -0.137980
H     -1.718371    5.921520   -2.055993
H     -0.761735    7.173657   -1.180916
H     -2.589390    6.969803   -0.936635
H     -6.890292   -2.488659   -0.004172
H     -6.340249   -2.761441   -1.705882
H     -6.194152   -4.035102   -0.458070
H     -3.058784   -1.793633    4.578733
H     -2.946385   -3.447283    3.781783
H     -4.343793   -2.413610    3.552093
H      9.515876   -2.159737   -1.595665
H     10.088423   -2.565866    0.053561
H      9.358694   -0.912350   -0.221784
H     -2.227872    5.544146    0.753650
H     -0.481822    5.892949    0.639014
H      2.264884    1.326721    1.719512
H      1.299413   -0.629531   -2.007604
H      4.310386    0.048937    1.780225
H      3.326587   -1.895987   -1.905646
H     -1.343034   -0.295924   -2.448496
H     -2.365041    1.903740   -0.495379
H     -2.856890    2.779950    1.062745
H     -3.142222   -0.706393   -4.280743
H     -2.461725    0.523770    1.715309
H     -1.290788    1.662022    2.360861
H     -4.797862   -2.811314    1.755892
H      0.834683    2.954842   -0.827010
H      1.134447    2.808112    0.905655
H     -0.240024   -1.177776   -0.539483
H     -0.379779   -1.642409    1.138704
H     -0.872753    3.677324    1.478721
H     -0.177422    0.946960   -1.096577
H     -5.148971   -1.902934   -3.151997
H      6.637038   -0.768071   -1.028893
