52

C      5.860822    2.565856   -0.784528
C      6.778985   -1.043337   -1.546684
C      4.564400   -1.806022    1.093789
C     -7.315617    1.749714   -2.160049
C     -5.417111   -2.014459    0.584397
C      6.359367    1.359919   -1.558545
C      2.524208   -0.615129    0.710960
C      1.484338   -0.080664    0.011389
C      4.889975   -0.161757   -0.208568
C     -0.853193    0.170476   -0.171361
C     -3.306384    0.463591   -0.318708
C     -1.352521   -1.164301    2.247891
C      6.200572    0.104362   -0.728969
C      3.846944   -0.361621    0.196810
C     -6.047669    1.397003   -1.520774
C     -2.259465   -0.003507    0.334782
C      0.171185   -0.292406    0.516217
C     -2.446785   -0.693253    1.586783
C     -4.661653    0.312413    0.146399
C     -5.843750    0.683038   -0.310548
C     -3.830108   -0.879398    2.140137
C     -6.886967    0.384355    0.709573
C     -4.982356   -0.661913    1.265281
O     -4.980547    1.790963   -2.221659
O     -3.902960   -1.216424    3.325326
O     -8.109144    0.583144    0.659672
O     -0.062041   -0.943717    1.689545
O     -6.141296   -0.143340    1.773429
H      5.458673    3.296297   -1.565195
H      5.343873    2.465249    0.123645
H      6.888138    3.099287   -0.567724
H      7.864663   -0.840065   -1.836075
H      6.201836   -1.172848   -2.509733
H      6.816849   -2.003155   -0.962123
H      5.372373   -1.259417    1.458721
H      4.644952   -2.484810    0.295832
H      3.760840   -1.941201    1.777202
H     -8.055041    2.238126   -1.512096
H     -7.823276    0.768582   -2.544276
H     -7.177244    2.333857   -3.082452
H     -4.581146   -2.671141    0.443028
H     -6.110789   -2.439104    1.292896
H     -5.926445   -1.689673   -0.328454
H      5.919896    1.145490   -2.532539
H      7.489214    1.404316   -1.793812
H      2.181972   -1.177062    1.517254
H      1.681669    0.487010   -0.867239
H      4.293948    0.755609   -1.042596
H     -0.771027    0.724622   -1.137832
H     -3.105156    0.970274   -1.262666
H     -1.510840   -1.691757    3.154803
H      6.860842    0.197926    0.230798
