57

C     -5.396053    0.313578    1.850993
C      2.342756   -1.158602   -3.271396
C      0.977783   -1.705611   -2.945859
C      2.572730    0.218092   -2.736533
C     -2.102709   -3.062425    0.097531
C     -1.455509   -2.642142    1.333249
C      3.365017    1.348364    0.342649
C      4.068266    1.113959    1.504392
C     -2.226434    3.157859   -0.151872
C     -3.340024    3.826156    0.377773
C      0.055963   -0.563460   -2.673575
C     -3.363683   -0.607314    0.858111
C      2.602051   -0.899941    0.379918
C     -0.404744    0.971258   -0.900185
C     -4.108878    0.507512    1.139837
C     -1.323056   -1.750771    0.080089
C      2.607955    0.324717   -0.246333
C     -2.442805    1.820601    0.104960
C      4.067989   -0.110313    2.138735
C     -2.127232   -0.491204    0.182116
C     -1.627641    0.690288   -0.216283
C      3.323443   -1.115458    1.558923
C      1.852920    0.559468   -1.496926
C     -3.629714    1.726279    0.754067
C      4.817189   -0.347688    3.369092
F      3.270443   -2.349516    2.120023
N     -4.175928    2.942780    0.920643
N      0.493140    0.070214   -1.445110
O      4.843408   -1.428052    3.968042
O      5.546062    0.714547    3.895322
H     -5.260372    0.363991    2.962755
H     -6.146467    1.093981    1.584187
H     -5.798329   -0.686251    1.634175
H      2.432157   -1.139355   -4.377481
H      3.093054   -1.892143   -2.909291
H      1.023476   -2.374983   -2.075441
H      0.588226   -2.342842   -3.778733
H      3.675641    0.301648   -2.524839
H      2.405075    0.965037   -3.568507
H     -1.647881   -3.879507   -0.540527
H     -3.188348   -3.076197    0.020914
H     -2.065906   -2.274662    2.169822
H     -0.534004   -3.175137    1.626067
H      3.398800    2.331288   -0.117095
H      4.655811    1.894776    1.968235
H     -1.390098    3.601176   -0.649031
H     -3.509665    4.890204    0.357644
H      0.190530    0.146655   -3.547859
H     -1.000356   -0.797877   -2.607911
H     -3.707195   -1.587198    1.156536
H      2.037844   -1.718937   -0.036461
H     -0.700360    1.684316   -1.766777
H      0.249999    1.723355   -0.298993
H     -0.316014   -1.734176   -0.312105
H      1.717229    1.693263   -1.525827
H     -5.091455    3.128202    1.394119
H      5.805901    0.788199    4.870033
