26

C     -1.102590    0.129678    1.539596
C     -2.405955    0.983919   -0.344698
C     -0.083635   -2.043905   -0.229635
C      3.307885    1.179954    0.704435
C      0.235175    0.162244   -1.349015
C     -1.694724   -0.229986    0.213841
C     -0.708972   -0.790887   -0.771333
C      2.354509    0.265523   -0.038319
O      2.574619   -0.956925   -0.111172
O      1.234238    0.739749   -0.647130
H     -0.331833    0.930405    1.465966
H     -1.920027    0.558204    2.158597
H     -0.728661   -0.753320    2.103583
H     -2.631496    0.782772   -1.425772
H     -1.740355    1.871446   -0.321988
H     -3.368870    1.172292    0.137654
H      0.287821   -1.959548    0.808641
H     -0.926992   -2.821307   -0.117116
H      0.603882   -2.547079   -0.930078
H      2.748133    2.017682    1.154552
H      4.055339    1.547440   -0.056280
H      3.863613    0.562490    1.414708
H     -0.392754    1.013278   -1.793253
H      0.605563   -0.325615   -2.326776
H     -2.469415   -1.004451    0.391208
H     -1.364498   -1.155492   -1.630216
