31

C      4.672022   -0.162134    0.167327
C     -4.474760   -0.764554    0.195654
C      1.635469    1.329979    0.128019
C     -3.626681   -1.775351   -0.193438
C      0.165369    1.168699    0.150470
C      0.464762   -1.260944   -0.570483
C      1.673047   -0.674722   -1.301050
C      2.426412    0.132005   -0.272201
C     -3.896320    0.478612    0.469269
C     -1.743750   -0.345172   -0.032527
F      1.174914    0.132020   -2.327061
N     -4.634599    1.450388    0.833592
N     -2.312762   -1.539860   -0.293814
N     -2.587742    0.637153    0.348101
N     -0.336173   -0.136070   -0.152390
O      3.710325    0.423605   -0.653122
H      4.501101    0.231297    1.204745
H      4.661729   -1.252245    0.107760
H      5.673751    0.196085   -0.123863
H     -5.544431   -0.895906    0.294204
H      1.993794    1.660145    1.136572
H      1.883383    2.207978   -0.539458
H     -4.068062   -2.738328   -0.406225
H     -0.242700    1.431907    1.170214
H     -0.342427    1.875915   -0.564697
H      0.832054   -1.873202    0.276433
H     -0.064622   -1.898462   -1.312313
H      2.316190   -1.474388   -1.701238
H      2.501340   -0.530245    0.639661
H     -4.229176    2.374835    1.040190
H     -2.181457    1.590963    0.562571
