28

C      3.601753   -1.133490   -0.084075
C     -2.481181   -0.597681   -0.645666
C      2.654006   -1.812507   -0.809420
C     -1.186290   -0.499968   -1.439249
C     -0.794946    1.585413   -0.172175
C     -1.819981    1.260858    0.898998
C     -2.266303   -0.188219    0.803182
C      3.235825    0.076959    0.461727
C      1.048999   -0.146563   -0.458446
F     -2.891443    2.081727    0.712822
N      4.081843    0.752594    1.147240
N      1.434420   -1.333608   -0.984131
N      1.963160    0.519821    0.247602
N     -0.269941    0.343723   -0.659190
O     -3.501309   -0.284598    1.441310
H      4.601682   -1.541903    0.050468
H     -2.774945   -1.672893   -0.624992
H     -3.273940    0.024582   -1.078151
H      2.989000   -2.775860   -1.227738
H     -1.371909    0.044761   -2.382017
H     -0.743177   -1.481804   -1.655153
H     -1.284056    2.111747   -1.037064
H      0.003935    2.217192    0.235785
H     -1.370483    1.394290    1.901857
H     -1.533473   -0.887357    1.255524
H      3.835020    1.671907    1.572979
H      1.744041    1.454873    0.694714
H     -3.630307   -1.183998    1.833257
