31

C     -4.000733   -0.066850    0.455138
C      4.371598   -0.383310   -0.211466
C     -1.892956   -1.295037    0.060561
C      3.569492   -1.400066   -0.640563
C     -0.464788   -1.237018    0.427671
C     -0.484157    1.188850   -0.284899
C     -1.776338    1.102372    0.529962
C      3.794126    0.772431    0.286172
C      1.652447   -0.130952   -0.086719
C     -2.593347    0.012274   -0.098940
F     -2.434510    2.313642    0.548360
N      4.559846    1.716059    0.689877
N      2.231656   -1.245182   -0.567031
N      2.437010    0.869960    0.335526
N      0.242315   -0.024180    0.014818
O     -2.688330    0.319291   -1.470319
H     -4.749835    0.364501   -0.222182
H     -4.284201   -1.123189    0.671600
H     -4.036114    0.508196    1.394165
H      5.437082   -0.461747   -0.248854
H     -2.004917   -1.920667   -0.867273
H     -2.422685   -1.854684    0.892455
H      4.003901   -2.298279   -1.035534
H     -0.332847   -1.320391    1.550375
H      0.104703   -2.127881    0.039118
H     -0.827559    1.164849   -1.347147
H      0.086619    2.095993   -0.038609
H     -1.522338    0.837895    1.603623
H      5.587843    1.596406    0.635406
H      2.061942    1.755135    0.721494
H     -3.624925    0.271579   -1.778479
