84

C     -4.732087    1.021787   -2.642746
C     -5.057817    2.526334   -0.115299
C     -1.719384    2.723148    3.096563
C      4.599945   -2.250876   -1.718599
C      5.747869   -2.139530    0.440136
C      5.885816   -4.156588   -0.914469
C      4.064910    2.447982    0.602773
C      1.828659    3.287713    0.006373
C      3.165388    4.421665    1.695697
C     -3.472472   -5.503487   -0.735204
C     -3.417508    1.722549   -2.564991
C     -3.722325    3.026453   -0.463437
C     -1.880510   -1.678463    0.815246
C     -2.309034    1.810996    2.035333
C     -2.833970    2.052542   -1.276316
C     -2.518659   -1.775368   -0.528327
C     -0.831376   -0.639016    0.711593
C     -1.198565    0.172021   -0.600478
C     -2.307806    1.086311   -0.309163
C     -1.577412   -1.016500   -1.438826
C     -2.646440   -3.200068   -0.982108
C      1.591490   -0.839894    0.489849
C      2.758552   -2.914514    0.555363
C      1.872278    0.962602    2.056650
C      4.946051   -3.023686   -0.468075
C      2.783755    3.055129    1.131916
N     -1.866038    1.886544    0.860430
N      0.420019   -1.252060    0.428503
N      2.655182   -1.706143    0.134425
N      1.906895    0.462053    0.897480
O     -3.305073    0.971474    2.507494
O     -2.193551   -0.836131   -2.617391
O     -2.070443   -3.527605   -2.045030
O      1.792825   -3.412570    1.401332
O      1.480653    0.201785    3.147133
O     -3.361634   -4.151913   -0.288764
O      3.849908   -3.644560    0.121499
O      2.244119    2.308960    2.197284
H     -5.625637    1.634330   -2.550594
H     -4.732039    0.092006   -2.008411
H     -4.837623    0.564670   -3.688112
H     -5.839366    3.086625   -0.708450
H     -5.270810    1.468686   -0.201193
H     -5.352593    2.782671    0.960913
H     -0.804684    3.208358    2.709918
H     -2.490930    3.502842    3.266236
H     -1.571477    2.188491    4.045957
H      4.456746   -1.150694   -1.499339
H      3.748767   -2.662521   -2.277394
H      5.486009   -2.292610   -2.387371
H      6.276850   -2.808604    1.180315
H      6.573036   -1.706677   -0.198738
H      5.156730   -1.355320    0.942853
H      5.591699   -4.510482   -1.939781
H      5.754094   -5.041451   -0.250181
H      6.934452   -3.835626   -0.907702
H      4.655571    3.260165    0.133013
H      3.882508    1.688361   -0.204959
H      4.707543    2.023736    1.413486
H      1.214821    2.420275   -0.250423
H      1.167853    4.152481    0.287892
H      2.425208    3.646407   -0.870264
H      4.204326    4.438839    2.083421
H      2.442248    4.727188    2.485160
H      3.095406    5.186741    0.868234
H     -3.772776   -6.120758    0.136817
H     -2.481139   -5.857040   -1.144265
H     -4.290057   -5.614296   -1.488152
H     -2.780967    1.414344   -3.402489
H     -3.734879    2.794419   -3.020285
H     -3.149931    3.285476    0.431668
H     -3.759082    4.011976   -1.036822
H     -1.366364   -2.670525    0.982078
H     -2.627277   -1.508052    1.630362
H     -1.937033    2.747766   -1.500623
H     -3.523973   -1.290701   -0.527442
H     -0.817450    0.000714    1.573113
H     -0.265154    0.649466   -0.888997
H     -3.202794    0.534945    0.130611
H     -0.643618   -1.683724   -1.564872
H     -4.050733    0.708693    1.909596
H     -1.615281   -1.103494   -3.372100
H      1.257547   -2.830184    2.038830
H      0.940044   -0.656988    3.054637
