47

C     -2.250920    1.798066    0.333068
C     -2.721055   -0.232613    1.615652
C     -4.511954    0.847578    0.335335
C      5.067349    0.602718   -0.377590
C      5.399450   -0.747513    1.644156
C     -3.097231   -2.321759   -0.864234
C     -3.534778    0.108575   -2.583067
C      1.645321    0.662655   -1.183359
C      2.203961    1.434462   -0.285753
C     -0.163586   -0.692371   -0.236385
C      1.311731   -0.642225   -0.588735
C      2.315758    0.746003    1.019558
C      2.185951   -0.716541    0.635404
C     -3.036490    0.506221    0.353218
C      4.343202   -0.128852    0.752897
O     -0.905042   -0.510452   -1.371093
O      3.613900    0.780872    1.513777
O      3.480260   -1.085743    0.268312
Si    -2.577373   -0.540598   -1.138274
H     -1.664429    1.901358    1.248953
H     -1.532334    1.768219   -0.527155
H     -2.933195    2.669747    0.218688
H     -2.303987   -1.235749    1.404617
H     -3.655681   -0.395582    2.221610
H     -2.058146    0.364751    2.277771
H     -4.693014    1.742430   -0.309241
H     -4.775552    1.175480    1.376660
H     -5.151445   -0.004018    0.097796
H      4.839117    1.677781   -0.389162
H      4.729735    0.143630   -1.336276
H      6.162796    0.492820   -0.305828
H      5.055935   -0.799221    2.705701
H      6.329602   -0.148189    1.545406
H      5.570583   -1.778115    1.273903
H     -2.616390   -2.723480    0.044945
H     -2.736412   -2.888833   -1.755149
H     -4.200048   -2.428227   -0.869256
H     -4.441547   -0.509515   -2.806214
H     -2.950557    0.132066   -3.523057
H     -3.921207    1.143302   -2.421273
H      1.447579    0.924638   -2.217895
H      2.572570    2.473265   -0.400643
H     -0.398819   -0.026439    0.590050
H     -0.344995   -1.748865    0.117989
H      1.568452   -1.466909   -1.293029
H      1.566889    1.014830    1.759929
H      1.766048   -1.339660    1.427272
