48

C      0.316172   -0.996551   -0.394604
C      7.370437   -0.366869   -0.279375
C     -7.045734    0.722707   -0.424596
C      6.410040   -0.972524   -1.029486
C      7.042409    0.661657    0.572465
C     -6.520832   -0.117642   -1.382270
C     -6.233848    1.160247    0.628923
C      2.622777    0.182135    1.102373
C      1.216242    0.598118    1.304356
C      5.085796   -0.550991   -0.936673
C      5.715081    1.078370    0.660289
C      3.338294    0.941278    0.025644
C     -5.200422   -0.497898   -1.261894
C     -4.914039    0.777701    0.745650
C     -3.001627   -1.733845    0.763270
C      0.368809    0.412710    0.070441
C      4.745552    0.465970   -0.097837
C     -4.400277   -0.068334   -0.226016
C     -2.965386   -0.501773   -0.124711
C     -0.989099    0.966401    0.308900
N     -2.078749    0.480720    0.181012
O     -4.013244   -2.552396    0.199757
O     -0.949862    2.326369    0.774086
H      1.309773   -1.268061   -0.878663
H     -0.422366   -1.229554   -1.161324
H      0.221840   -1.739850    0.422269
H      8.408847   -0.692821   -0.348029
H     -8.072042    1.053883   -0.466202
H      6.695521   -1.782784   -1.694719
H      7.808826    1.153243    1.178480
H     -7.138331   -0.459608   -2.196953
H     -6.613062    1.822589    1.401372
H      2.737231   -0.922179    0.994055
H      3.185395    0.408767    2.057343
H      0.790942    0.115741    2.195547
H      1.222721    1.709844    1.504458
H      4.371719   -1.065765   -1.552202
H      5.515180    1.888082    1.343476
H      2.858881    0.858695   -0.980870
H      3.369445    2.010421    0.319057
H     -4.814099   -1.168532   -2.042809
H     -4.280810    1.098781    1.537910
H     -2.072185   -2.300210    0.583526
H     -3.216925   -1.512308    1.807637
H      0.889576    0.995821   -0.748925
H     -2.744704   -0.918113   -1.155086
H     -4.141627   -3.376373    0.705263
H     -1.788236    2.904734    0.672354
