62

C     -3.619792    2.370703    0.552182
C      0.409777    0.011327    2.104126
C      4.630533    1.105592   -0.556424
C      3.781965   -0.143705   -0.311575
C      6.061058    0.628915   -0.737978
C      2.319825    0.255117   -0.117941
C     -1.367445   -2.232385    2.231004
C     -2.552302   -1.607205    1.517252
C     -4.699672   -0.169087    0.213006
C     -5.416336    0.612879   -0.889179
C     -0.842182    1.277922   -0.113128
C     -1.892002    1.700087   -1.146479
C      7.000893    1.787364   -0.989004
C      1.519965   -1.967117   -0.991942
C      0.160629   -3.271955    0.690628
C      1.497280   -0.979059    0.143013
C     -0.287148   -2.167589    1.214295
C      1.232615   -3.282933   -0.331143
C     -2.245393   -0.336171    0.871607
C     -3.286901   -0.020075   -0.165767
C     -0.929908   -0.199216    0.113527
C     -4.353617    1.461070   -1.544540
C     -3.233134    1.460882   -0.567536
C      0.213277   -0.825602    0.834089
Br     6.516301    2.759080   -2.568584
O      1.885490   -4.280505   -0.662930
O     -4.487677    1.978243   -2.625855
H     -3.537732    3.407902    0.171763
H     -3.023641    2.308121    1.458229
H     -4.712856    2.215780    0.753606
H     -0.529333    0.022452    2.684792
H      0.555327    1.064483    1.779960
H      1.202085   -0.383464    2.750748
H      4.341590    1.583142   -1.515156
H      4.504870    1.770914    0.300173
H      3.968671   -0.782701   -1.173286
H      4.163247   -0.665149    0.590445
H      6.062139   -0.070979   -1.605629
H      6.337821    0.052638    0.146015
H      2.271962    0.935432    0.719799
H      2.065116    0.711506   -1.118432
H     -1.633546   -3.311027    2.409183
H     -1.132845   -1.809695    3.197767
H     -2.884608   -2.382429    0.766411
H     -3.345010   -1.467305    2.251102
H     -4.962432    0.243397    1.202153
H     -5.005912   -1.250246    0.127552
H     -6.239672    1.223668   -0.491497
H     -5.739143   -0.103298   -1.668450
H      0.091161    1.698410   -0.418989
H     -1.151330    1.808213    0.827444
H     -1.789996    1.130228   -2.080360
H     -1.740983    2.794594   -1.295157
H      8.017578    1.365072   -1.125049
H      6.939786    2.434130   -0.072807
H      2.518246   -2.047407   -1.441517
H      0.774030   -1.737819   -1.775021
H     -0.210477   -4.263917    0.956637
H      2.174929   -1.517086    0.921382
H     -2.215005    0.455061    1.673928
H     -3.063178   -0.608299   -1.060105
H     -1.086957   -0.750898   -0.848065
