47

C     -2.371301    2.024158    1.405968
C     -4.524637    0.899559    1.049697
C     -3.307973    1.907113   -0.874448
C      4.425295    1.720831    0.986242
C      4.367456    1.034082   -1.426963
C     -3.106964   -1.362760   -1.257436
C     -2.289025   -1.428510    1.710757
C      2.173538   -2.173919   -1.459081
C      3.208667   -2.398485   -0.656948
C     -0.043678   -1.343626   -0.679682
C      1.387035   -1.006007   -1.041973
C      3.254069   -1.389078    0.427439
C      2.052543   -0.511981    0.236852
C     -3.160419    1.177912    0.435588
C      3.913716    0.701801   -0.012505
O     -0.657443   -0.147385   -0.308445
O      4.329676   -0.548794    0.371905
O      2.542358    0.744595    0.003106
Si    -2.281053   -0.444804    0.116512
H     -1.374842    2.212412    0.989982
H     -2.901009    3.001542    1.479116
H     -2.335546    1.511826    2.394982
H     -4.579728   -0.174158    1.366188
H     -5.281796    1.042873    0.269745
H     -4.729279    1.556000    1.903756
H     -4.192970    1.483225   -1.384904
H     -2.376330    1.783116   -1.441596
H     -3.487096    2.996014   -0.698956
H      4.248970    1.278922    2.000982
H      5.499237    1.934708    0.855966
H      3.776344    2.608933    0.929741
H      3.700152    1.834265   -1.847484
H      4.149345    0.130937   -2.042531
H      5.415491    1.323767   -1.485836
H     -4.020881   -0.809404   -1.617834
H     -2.454862   -1.484166   -2.144357
H     -3.407848   -2.367831   -0.891930
H     -1.593896   -2.279539    1.554896
H     -1.853460   -0.751540    2.496699
H     -3.303895   -1.750877    1.981756
H      1.951051   -2.793872   -2.319294
H      3.934518   -3.195240   -0.752559
H     -0.563196   -1.872373   -1.487027
H     -0.078875   -2.000385    0.213574
H      1.397817   -0.227789   -1.831591
H      3.178616   -1.955974    1.392445
H      1.372107   -0.490096    1.089490
