18

C      1.117134   -1.171117    1.346562
C      1.611359    0.435907   -0.370532
C     -1.505312    0.637358   -0.126943
C      0.679508   -0.487741    0.295499
C     -0.733213   -0.675354   -0.178611
O      1.200788    1.756601   -0.384014
O     -2.838830    0.418313   -0.470290
O     -0.765144   -1.231513   -1.446906
H      0.416038   -1.849476    1.827422
H      2.139278   -1.048963    1.703735
H      1.773299    0.097706   -1.415717
H      2.590211    0.396302    0.140274
H     -1.034214    1.321473   -0.872786
H     -1.485821    1.041664    0.893702
H     -1.243786   -1.366410    0.499962
H      1.656318    2.284182    0.307319
H     -3.368117    0.191972    0.337947
H     -0.209495   -0.750904   -2.086623
