28

C      1.871058   -1.670675   -0.818928
C      2.804322    1.322621    0.292081
C     -2.527742    0.798138   -0.544000
C     -2.029304    0.873763    0.872102
C     -2.121650   -0.477862   -1.204825
C     -0.587257    0.518280    1.029924
C     -0.614095   -0.512374   -1.260195
C      1.419489   -0.524031    0.093095
C     -0.105173   -0.581283    0.152025
O      1.873673    0.642234   -0.467181
H      1.833076   -1.360552   -1.877786
H      2.855245   -2.058186   -0.521559
H      1.147655   -2.509522   -0.702857
H      3.722299    0.702440    0.479684
H      3.123915    2.214927   -0.269644
H      2.404549    1.672073    1.265838
H     -3.638632    0.844720   -0.513781
H     -2.193830    1.666156   -1.151034
H     -2.696082    0.242167    1.510020
H     -2.167462    1.917253    1.224595
H     -2.463470   -1.346638   -0.609937
H     -2.490703   -0.499050   -2.247543
H      0.051891    1.418841    0.869179
H     -0.429696    0.212326    2.085587
H     -0.346816   -1.499282   -1.738960
H     -0.171582    0.273373   -1.867360
H      1.886624   -0.714111    1.068777
H     -0.410299   -1.565746    0.562133
