26

C     -0.518489    2.058290   -0.246230
C      3.543040   -0.338797    0.239354
C     -0.548377   -1.739031   -0.189972
C     -1.182069   -0.088111    1.570776
C     -2.431998   -0.179064   -0.581233
C     -0.067985    0.628283   -0.477501
C      2.267713   -0.043533   -0.481903
C     -1.085954   -0.347382    0.089328
O      2.167393   -0.138248   -1.731302
O      1.141252    0.348221    0.205298
H      0.224624    2.700607   -0.800473
H     -0.565469    2.329515    0.813594
H     -1.477265    2.185210   -0.767394
H      3.440742   -0.016670    1.286418
H      3.745129   -1.415628    0.156860
H      4.340128    0.206869   -0.306507
H      0.488112   -1.785173    0.229566
H     -0.482784   -1.873797   -1.277331
H     -1.157400   -2.524366    0.301035
H     -1.624526   -0.938576    2.125343
H     -0.184357    0.163556    1.971715
H     -1.834023    0.809765    1.710774
H     -3.001966   -1.111978   -0.387720
H     -2.292098   -0.107333   -1.683412
H     -2.926371    0.723469   -0.196524
H      0.022995    0.493902   -1.572560
