22

C     -1.307947    0.623609   -0.994294
C     -0.813759   -0.816625    0.807807
C     -2.439624    1.027689   -0.322774
C     -1.964519   -0.397693    1.477819
C      1.878661   -1.151490   -0.213737
C     -0.449054   -0.333291   -0.425301
C     -2.798326    0.539629    0.911726
C      0.753932   -0.775162   -1.154007
C      2.200172    0.083677    0.572080
F     -3.929541    0.973032    1.535659
O      1.245288    0.389190   -1.816292
O      1.543051    0.486797    1.555267
O      3.302448    0.881081    0.224296
H     -1.029397    1.012322   -1.967602
H     -0.196780   -1.567160    1.296382
H     -3.104459    1.773948   -0.770278
H     -2.233730   -0.785319    2.441412
H      1.603345   -1.932958    0.503307
H      2.777301   -1.458933   -0.781114
H      0.593102   -1.556756   -1.887129
H      1.146896    1.108532   -1.142212
H      3.222940    1.875880    0.148985
