19

C      1.927163   -0.606233   -0.054158
C     -1.519980   -0.861231   -0.239835
C     -1.440639    0.635012    0.094381
C     -0.300607   -1.358416    0.552850
C      0.060119    0.908259    0.265872
N      0.581212    1.705943   -0.808395
N      0.628755   -0.350352    0.303712
H      2.643005   -0.190009    0.709928
H      2.135537   -1.679466   -0.122409
H      2.253743   -0.145097   -1.023059
H     -2.447376   -1.316151    0.096367
H     -1.322646   -0.933088   -1.324314
H     -1.891061    1.256193   -0.676927
H     -1.975904    0.740644    1.069383
H     -0.601096   -1.300042    1.641081
H     -0.021533   -2.367648    0.282289
H      0.229712    1.426431    1.255430
H     -0.111530    1.945857   -1.534299
H      1.173124    2.489393   -0.487897
