26

C      0.314534   -2.032246    0.212216
C      3.284462    1.713326    0.097793
C     -2.040829   -0.981368   -0.989581
C     -1.251193    1.295754   -0.745756
C     -1.560481   -0.065562    1.252665
C      0.304314   -0.623048   -0.315094
C      2.251346    0.818027   -0.471284
C     -1.109486   -0.100933   -0.181918
O      2.263891    0.581266   -1.699880
O      1.258398    0.211105    0.246914
H      1.373491   -2.370785    0.238759
H     -0.189458   -2.666959   -0.550857
H     -0.217306   -2.171716    1.150326
H      4.252525    1.163023    0.132036
H      3.025798    2.010943    1.131827
H      3.465338    2.607314   -0.540156
H     -2.115958   -1.998386   -0.606438
H     -3.061968   -0.524670   -1.012334
H     -1.649974   -0.966366   -2.048156
H     -2.269566    1.646716   -0.475339
H     -1.215642    1.229051   -1.846471
H     -0.524779    2.007389   -0.325241
H     -1.865833   -1.055278    1.595305
H     -0.765267    0.364897    1.902972
H     -2.467096    0.594109    1.318052
H      0.510740   -0.685603   -1.405807
