19

C      1.788164   -0.035089   -0.132609
C     -0.887615   -1.301213    0.462127
C     -0.845692    0.168860    0.892907
C     -0.029482   -1.339108   -0.800503
C     -0.442871    0.833470   -0.403120
N     -0.078267    2.199908   -0.266677
N      0.588006   -0.028511   -0.899072
H      1.644081   -0.236008    0.951281
H      2.416173   -0.889268   -0.503325
H      2.398892    0.879083   -0.239937
H     -1.956859   -1.502623    0.206234
H     -0.509451   -1.971682    1.232385
H     -0.155272    0.343869    1.717454
H     -1.855767    0.498330    1.240918
H      0.701296   -2.148773   -0.708093
H     -0.644868   -1.470140   -1.710670
H     -1.320579    0.718137   -1.093234
H      0.047535    2.483170    0.730187
H     -0.857426    2.797589   -0.676256
