60

C     -4.200335   -2.432233   -1.644001
C     -3.245926    3.188692    0.215504
C      2.995496    5.471063   -0.050141
C     -3.575198   -1.263996   -0.902915
C      5.461062   -3.119013   -0.771434
C      4.850990   -1.902283   -0.749615
C      4.835877   -4.262191   -0.269554
C     -0.609692   -0.964366   -1.250120
C     -2.777226   -0.019524    1.651634
C     -1.477010   -2.161076   -1.003039
C     -3.200281   -1.114919    2.577012
C      3.814541    0.698794   -0.178398
C      0.015965    3.584390    0.084902
C     -1.165089    0.110036   -0.358530
C      3.572131   -1.726418   -0.221592
C      3.556372   -4.107547    0.261366
C     -1.784332   -0.677571    0.679986
C      3.316004    2.012465   -0.127807
C      2.956043   -0.397670   -0.189369
C     -0.791868    2.457046    0.038120
C      1.403333    3.473977    0.007043
C     -0.182261    1.172301   -0.078213
C      1.942934    2.171807   -0.095325
C      2.958057   -2.826922    0.262523
C      1.142459    1.049555   -0.115573
Cl     1.357782   -2.734105    1.038421
I      2.549636   -5.742249    1.064770
N     -2.495665   -1.699909   -0.069364
O     -4.128636   -0.609794    3.543076
O      4.110787    2.971450   -0.113696
O     -2.110386    2.567867    0.102195
O      2.219842    4.485143   -0.022844
O      1.689829   -0.158732   -0.161419
H     -3.976901   -3.386234   -1.171236
H     -5.282684   -2.359479   -1.719699
H     -3.809750   -2.500730   -2.712122
H     -4.136758    2.484922    0.184886
H     -3.386205    3.724862    1.168891
H     -3.473828    3.930976   -0.632345
H      3.813743    5.462599   -0.872373
H      2.497767    6.504834   -0.199709
H      3.588089    5.703840    0.924191
H     -4.383745   -0.687339   -0.427458
H     -3.220517   -0.590084   -1.750006
H      6.462873   -3.232590   -1.174375
H      5.333805   -0.992789   -1.137367
H      5.335152   -5.206130   -0.233578
H      0.399990   -1.301793   -1.192187
H     -0.727064   -0.626883   -2.345627
H     -3.565500    0.540971    1.194047
H     -2.175018    0.692739    2.234598
H     -0.998368   -3.037773   -0.597771
H     -1.923988   -2.416724   -2.021714
H     -3.678377   -1.957001    2.078724
H     -2.323511   -1.458589    3.175427
H      4.900644    0.665984   -0.244995
H     -0.408085    4.584698    0.198809
H     -1.987780    0.596733   -0.976808
H     -1.090864   -1.282862    1.330181
H     -4.788353   -1.350226    3.766016
