66

C     -3.755830    3.985280    0.152488
C     -5.987184   -1.720306    0.050451
C     -2.997997   -5.646695    0.155151
C      8.083610   -0.094723    0.067052
C      7.918753    1.286927    0.645364
C      2.831363    2.260676   -1.178466
C      1.895702    1.270699   -1.052620
C      4.122307    2.026996   -0.773611
C     -1.517466    1.663760    0.169015
C      6.671144   -0.483413   -0.319725
C      6.507194    1.305632    1.201808
C     -2.197846    2.562308    1.247816
C      1.289544   -2.310171   -0.302715
C     -3.391916   -2.823734   -0.009010
C     -4.805679    1.892218   -1.113248
C     -2.671513    0.871533   -0.317114
C      2.194914    0.011493   -0.521961
C      4.477594    0.806350   -0.242761
C     -3.891115    1.550512    0.053597
C      0.177955   -3.106808   -0.182018
C      1.104128   -0.952104   -0.382453
C     -3.537542   -1.463628   -0.087348
C     -2.134592   -3.347550   -0.038929
C     -2.497258   -0.562941   -0.196597
C     -1.062612   -2.501881   -0.148258
C      3.481035   -0.183387   -0.130774
C     -1.226500   -1.106919   -0.231387
Cl     3.982414   -1.672018    0.604077
N     -3.518658    2.743512    0.779128
N      5.797878    0.549978    0.181721
O     -5.958372    2.489138   -0.612117
O      0.291697   -4.375166   -0.102747
O     -4.821473   -0.959258   -0.055472
O     -1.960667   -4.719204    0.040859
O     -0.118621   -0.440800   -0.343178
H     -3.217531    4.751375    0.798391
H     -3.308899    4.141985   -0.843059
H     -4.819015    4.323728    0.226247
H     -6.853154   -1.090753   -0.271687
H     -6.188023   -2.112697    1.071526
H     -5.944300   -2.556574   -0.673323
H     -2.593453   -6.651635   -0.135133
H     -3.452030   -5.702539    1.170582
H     -3.787987   -5.397264   -0.587413
H      8.510742   -0.785657    0.837150
H      8.754857   -0.049034   -0.830514
H      8.681819    1.425302    1.442700
H      8.032853    2.002327   -0.195076
H      2.589290    3.224656   -1.588185
H      0.887301    1.430878   -1.381834
H      4.876045    2.792699   -0.864480
H     -0.783058    1.095606    0.749372
H     -1.082074    2.342264   -0.601545
H      6.454289   -1.491215    0.146828
H      6.644464   -0.569993   -1.432688
H      6.499141    0.787312    2.162929
H      6.132849    2.324876    1.325656
H     -1.646694    3.519022    1.199686
H     -2.114819    2.090964    2.240908
H      2.241291   -2.778989   -0.353863
H     -4.275541   -3.487607    0.076394
H     -4.986381    1.053881   -1.803106
H     -4.340556    2.679177   -1.763483
H     -2.608964    1.022804   -1.492706
H     -4.519054    1.015602    0.831280
H     -6.557799    1.843194   -0.138727
