148

C      5.449414   -3.666182   -1.165485
C      6.748431   -2.469004    0.504690
C      2.745821    6.978265    2.628287
C      4.474410    7.103011    0.929498
C     -2.821485   -7.113385    1.685891
C     -1.882847   -5.026579    2.496039
C     -2.983585    0.024593   -2.598536
C     -4.373108    1.903282   -3.310587
C      5.365503    1.715893   -1.308611
C      4.976411    3.214468    0.515876
C      3.015435   -5.759284    0.318866
C      1.113973   -6.622289   -0.933045
C     -1.515644    5.153558   -1.780286
C     -3.314600    6.005106   -0.348237
C     -5.973552   -3.022376    0.865255
C     -5.809649   -2.662711    3.311262
C      2.927419   -0.449959   -3.220152
C     -1.600904   -4.756852   -2.780325
C      0.128740    7.063745    1.038503
C     -4.346771    1.780712    2.114622
C      4.764760   -1.417512   -0.441356
C      2.513135    5.851786    0.321536
C     -2.733428   -5.211974    0.109599
C     -4.104908    1.385647   -0.935087
C      5.332609   -2.742245    0.019794
C      3.286814    6.262735    1.473626
C     -2.051108   -5.834782    1.260868
C     -3.362292    1.471694   -2.268974
C      4.269397    2.562115   -0.701064
C      2.039218   -5.415803   -0.763495
C     -2.548652    4.736132   -0.778481
C     -5.048284   -3.016303    2.040628
C      3.396844   -1.478990   -1.031748
C      1.362626    4.941320    0.388546
C     -2.226489   -3.998089   -0.516867
C     -3.235651    0.809961    0.147344
C      3.095552    1.764382   -0.168062
C      1.170756   -4.226420   -0.286639
C     -1.971449    4.063037    0.460773
C     -3.942198   -1.953284    1.863068
C      2.536059    0.929180   -1.264053
C      0.206895   -3.853137   -1.328561
C     -1.064977    4.935244    1.210768
C     -4.624345   -0.634039    1.735189
C      2.383704   -2.007944   -0.042718
C      1.670253    3.603643    0.962074
C     -2.091814   -2.768329    0.300173
C     -2.020107    1.542159    0.489642
N      2.955060   -0.312082   -1.734300
N     -1.145385   -4.176218   -1.480973
N      0.152971    5.581834    0.862886
N     -4.060911    0.577118    1.307581
O      1.509154    1.456049   -1.852959
O      0.691369   -3.102942   -2.258148
O     -1.386865    5.214765    2.454666
O     -5.876891   -0.557792    2.044357
O      1.838757   -1.067620    0.640325
O      1.488155    3.596824    2.243237
O     -0.887239   -2.418671    0.417446
O     -1.228018    0.821805    1.227952
O      2.040201   -3.271365    0.162448
O      2.072696    2.529291    0.335919
O     -3.141453   -2.160193    0.810383
O     -1.599028    2.784126    0.180538
H      5.979608   -3.179580   -2.016609
H      4.489523   -4.055943   -1.495734
H      6.124640   -4.534274   -0.896826
H      7.288181   -3.438767    0.534647
H      7.210883   -1.746202   -0.172806
H      6.739159   -2.091942    1.543978
H      1.944950    6.439033    3.194225
H      2.473379    8.057721    2.441637
H      3.584445    7.079479    3.384852
H      5.254417    7.110021    1.712908
H      4.060316    8.147091    0.881423
H      4.799788    6.717861   -0.040184
H     -2.960941   -7.704141    0.765272
H     -3.808262   -6.848033    2.062099
H     -2.176151   -7.668577    2.367640
H     -1.867829   -3.951914    2.400064
H     -2.612324   -5.370759    3.297969
H     -0.884546   -5.303298    2.954065
H     -3.001731   -0.149068   -3.702008
H     -3.765896   -0.675707   -2.195373
H     -2.006652   -0.257817   -2.211444
H     -4.212780    2.948262   -3.634166
H     -5.427173    1.870987   -2.912897
H     -4.382543    1.248333   -4.204446
H      5.959357    1.238060   -0.513336
H      5.067780    1.066518   -2.117433
H      6.083261    2.457106   -1.781605
H      4.309222    3.127860    1.400530
H      5.901965    2.632720    0.693470
H      5.268753    4.210010    0.220796
H      3.135482   -4.942135    1.065926
H      4.010462   -5.951118   -0.113115
H      2.654597   -6.632113    0.926731
H      0.101036   -6.234517   -1.065759
H      1.117941   -7.183097    0.019820
H      1.459276   -7.241334   -1.788525
H     -0.832304    5.940397   -1.415935
H     -1.959647    5.517071   -2.728390
H     -0.867587    4.267468   -2.030143
H     -3.467593    5.945972    0.752014
H     -4.327515    6.011323   -0.792238
H     -2.797993    6.906826   -0.669110
H     -5.958799   -4.016916    0.358003
H     -7.031329   -2.812582    1.120673
H     -5.653982   -2.295900    0.071568
H     -5.803545   -3.558727    4.003699
H     -5.347603   -1.858584    3.892373
H     -6.861471   -2.368481    3.102056
H      2.479400   -1.437554   -3.479223
H      3.955975   -0.420780   -3.626729
H      2.315449    0.302937   -3.700714
H     -1.615667   -5.838642   -2.669956
H     -2.600998   -4.354452   -3.032058
H     -0.922934   -4.459253   -3.600702
H      0.009316    7.332213    2.106222
H      0.982235    7.579680    0.647132
H     -0.809959    7.503691    0.568309
H     -4.770335    2.576532    1.436109
H     -5.134658    1.598061    2.870613
H     -3.454142    2.159176    2.606693
H      5.476586   -1.130217   -1.287638
H      4.894510   -0.738659    0.413735
H      3.281272    5.323342   -0.369394
H      2.302723    6.742632   -0.353577
H     -2.685177   -6.009943   -0.715648
H     -3.840798   -5.123308    0.242593
H     -4.666314    2.277225   -0.679219
H     -4.888134    0.586621   -1.120738
H      4.700942   -3.159410    0.821388
H      3.828124    5.356063    1.904821
H     -1.066742   -6.231719    0.946695
H     -2.468591    2.111926   -2.226025
H      4.032156    3.350509   -1.389404
H      2.457224   -5.105589   -1.716485
H     -3.301440    4.124888   -1.286151
H     -4.548410   -3.973969    2.186396
H      3.464075   -2.358167   -1.763319
H      1.077027    4.688567   -0.699822
H     -3.115065   -3.669304   -1.228804
H     -2.878528   -0.162428   -0.298994
H      3.507141    1.077936    0.587904
H      0.640805   -4.627341    0.638370
H     -2.905467    3.996103    1.124692
H     -3.482730   -1.945087    2.891161
