51

C     -3.608175   -1.319272   -2.456813
C      3.077067    0.042983   -2.879151
C      2.362835    0.452988   -1.796980
C      4.414041   -0.332368   -2.751506
C     -1.994648    0.898560   -1.199329
C     -3.510932    0.771547   -1.452385
C     -0.575309    1.504088    3.688007
C      2.548282    1.293427    1.820058
C     -2.318405   -2.486585   -0.461599
C     -1.791533   -0.131177   -0.075829
C      2.960442    0.505697   -0.501271
C      0.336619    1.296413    2.671124
C      5.021663   -0.292827   -1.530792
C     -2.878728   -1.083644   -0.156938
C      1.684604    1.556552    2.890006
C     -1.892731    1.212575    3.451121
C      2.092502    0.807918    0.636299
C     -1.425655    0.511134    1.192414
C      4.269847    0.127997   -0.440940
C     -2.306244    0.728142    2.230659
C     -0.074594    0.812222    1.456670
C      6.446506   -0.726377   -1.328924
Cl     5.141459    0.100951    1.098723
F      7.173283    0.316423   -0.797393
F      6.479984   -1.796927   -0.430729
F      6.977292   -1.135700   -2.514494
N     -3.797761   -0.639190   -1.195756
O     -3.291699   -3.442831   -0.505506
O      2.035522    1.992163    3.989712
O     -2.817291    1.418616    4.479362
O     -3.656770    0.468744    2.069827
O      0.785652    0.586605    0.492228
H     -4.297250   -0.816435   -3.207559
H     -3.872140   -2.374714   -2.466023
H     -2.591791   -1.068598   -2.834588
H      2.625654   -0.016961   -3.886616
H      1.336864    0.754592   -1.840536
H      4.969672   -0.664421   -3.632426
H     -1.739449    1.918798   -0.894692
H     -1.491005    0.624355   -2.115627
H     -4.093362    1.424768   -0.758865
H     -3.790772    1.042679   -2.477524
H     -0.213931    1.884922    4.628556
H      3.580025    1.530497    2.014747
H     -1.579147   -2.719246    0.312535
H     -1.791261   -2.470916   -1.453126
H     -0.829083   -0.676772   -0.410629
H     -3.438372   -1.251297    0.789500
H     -3.786558   -3.541540    0.352587
H     -2.556244    1.770970    5.368332
H     -4.308976    0.630469    2.822079
