66

C     -4.397693   -3.614279    1.010220
C     -5.879147    2.115466    0.597657
C     -2.737115    5.659560    0.947754
C      7.545474   -1.604889    0.837093
C      8.003322   -1.193047   -0.551771
C      2.835962   -2.082834   -1.899688
C      1.889137   -1.143165   -1.549531
C      4.128642   -1.937211   -1.466289
C     -1.552617   -1.575641   -0.045640
C      6.319691   -0.720673    1.058974
C      6.884352   -0.388596   -1.162240
C     -2.200674   -2.895775    0.394147
C      1.355311    2.177052   -0.200829
C     -3.257113    2.975734    0.485695
C     -4.793368   -1.938199   -0.913581
C     -2.742335   -0.703625   -0.279826
C      2.174328   -0.021751   -0.756766
C      4.450846   -0.846851   -0.684009
C     -3.920094   -1.374499    0.208544
C      0.343383    3.059333    0.098009
C      1.075275    0.870434   -0.427423
C     -3.523823    1.619812    0.253749
C     -1.975315    3.446841    0.437535
C     -2.524665    0.727382   -0.026218
C     -0.948658    2.572286    0.156488
C      3.464156    0.091146   -0.341291
C     -1.219305    1.215533   -0.079800
Cl     3.962272    1.389996    0.727799
N     -3.460844   -2.541551    0.938106
N      5.771717   -0.674135   -0.257452
O     -5.281770   -0.927170   -1.708140
O      0.579743    4.274818    0.314192
O     -4.816183    1.223514    0.314688
O     -1.636420    4.787862    0.660539
O     -0.184136    0.457600   -0.356289
H     -3.979288   -4.466558    1.618872
H     -5.373196   -3.290353    1.370519
H     -4.510762   -4.052341   -0.018427
H     -5.712053    2.770433    1.447195
H     -6.806781    1.478981    0.725706
H     -6.066680    2.686617   -0.360001
H     -3.459394    5.657196    0.100936
H     -3.237682    5.241915    1.840701
H     -2.365280    6.697689    1.093591
H      8.308579   -1.449277    1.614677
H      7.286009   -2.680694    0.786097
H      8.926886   -0.612379   -0.416967
H      8.153761   -2.090000   -1.217667
H      2.604999   -2.940468   -2.504455
H      0.887153   -1.255338   -1.921464
H      4.926807   -2.633075   -1.698476
H     -0.915097   -1.227371    0.810154
H     -0.969648   -1.773135   -0.942519
H      5.659719   -1.132890    1.832414
H      6.720498    0.278615    1.331418
H      7.143452    0.672387   -1.088638
H      6.646396   -0.718325   -2.193554
H     -1.545850   -3.467377    1.086134
H     -2.344962   -3.486953   -0.537493
H      2.352555    2.609794   -0.272189
H     -4.049640    3.662887    0.702167
H     -5.677704   -2.492087   -0.457355
H     -4.265460   -2.661570   -1.545050
H     -2.838905   -0.719605   -1.445456
H     -4.553502   -0.845537    0.958722
H     -4.677270   -0.241651   -1.998836
