23

C     -3.018034    0.541538   -0.086363
C     -0.675289    0.034324   -1.678821
C     -1.976541   -0.452238    0.349616
C      3.684252    0.628996   -0.383379
C      0.381331   -1.105060    0.205217
C     -0.636544   -0.035264   -0.185241
C      2.345139    0.340153    0.152533
Cl     4.670898   -0.830923   -0.363556
O      1.793735    1.101736    1.014762
O      1.644724   -0.770365   -0.262799
H     -3.236656    0.377127   -1.144937
H     -2.716768    1.573709    0.165336
H     -3.962944    0.321776    0.459321
H     -1.240630   -0.827809   -2.134714
H      0.350793   -0.013079   -2.125248
H     -1.117588    0.973451   -2.062977
H     -1.892949   -0.476225    1.459311
H     -2.272873   -1.453296    0.023897
H      4.165191    1.478709    0.184473
H      3.587594    0.984872   -1.422734
H      0.404517   -1.275535    1.300679
H      0.072019   -2.051952   -0.328504
H     -0.353377    0.935358    0.224628
