24

C     -2.677878    0.499241    0.733588
C     -1.889079    0.921257   -0.458444
C      3.199584    0.511745    0.305401
C      2.198319    0.555649    1.240268
C      2.976366   -0.085290   -0.903069
C     -1.483451   -0.233851   -1.282566
C      0.955155    0.003431    0.984312
C      1.757410   -0.637075   -1.178673
C      0.751216   -0.591867   -0.237259
C     -0.560694   -1.203604   -0.625511
Br    -1.281436   -2.103285    0.894777
H     -3.419954    1.320885    0.954757
H     -3.241932   -0.432032    0.438806
H     -2.105721    0.285671    1.635366
H     -0.969178    1.471245   -0.143900
H     -2.489814    1.618445   -1.081547
H      4.146494    0.967445    0.582260
H      2.325938    1.017034    2.211501
H      3.760165   -0.116947   -1.628112
H     -0.991975    0.113988   -2.236630
H     -2.384468   -0.795173   -1.621361
H      0.172472    0.034103    1.729871
H      1.560032   -1.115902   -2.132749
H     -0.307570   -2.005114   -1.389457
