24

C     -3.213288    0.888807   -0.401159
C     -1.902560    0.145645   -0.695348
C      3.229553    0.831618   -0.545988
C      3.155988   -0.518721   -0.749375
C      2.188308    1.541022   -0.002371
C     -1.521450   -0.541061    0.598565
C      2.016577   -1.199775   -0.406255
C      1.036643    0.829850    0.340633
C      0.931807   -0.526292    0.148622
C     -0.245770   -1.322158    0.496520
Br    -0.516393   -2.729651   -0.834580
H     -3.706447    1.214661   -1.322183
H     -3.858180    0.158865    0.139251
H     -2.950218    1.743102    0.233050
H     -2.158687   -0.642412   -1.451395
H     -1.137264    0.822912   -1.091739
H      4.119520    1.401022   -0.807626
H      4.003129   -1.049997   -1.183625
H      2.260010    2.616471    0.154301
H     -1.464713    0.252315    1.386563
H     -2.381646   -1.181458    0.876562
H      1.972834   -2.262919   -0.572131
H      0.211976    1.382217    0.775575
H     -0.069726   -1.854064    1.447163
