148

C      2.791549    6.830703    0.682363
C      2.084288    6.900666   -1.681335
C      5.348132   -2.309347    3.789478
C      6.325379   -1.324955    1.716306
C     -6.378349    0.658471   -1.987097
C     -4.402179    1.979516   -2.425140
C     -2.822305   -5.211018   -3.093684
C     -3.313811   -3.070782   -2.015452
C      5.389069    3.519084   -0.085221
C      5.855739    1.380907   -1.097644
C     -3.596485    5.041460   -0.715046
C     -2.484371    6.162251    1.204915
C      3.760411   -6.603097   -0.016535
C      1.743674   -6.521367   -1.411114
C     -4.443955   -0.575394    3.722891
C     -5.678943   -2.095230    2.180973
C      2.708106    4.202408   -3.185172
C     -4.876940    2.122983    1.694480
C      2.952973   -1.812708   -1.973502
C     -2.133682   -5.672965    1.232230
C      1.490176    4.960178   -0.184528
C      4.189068   -2.455557    1.578712
C     -4.395699    0.384203   -0.496935
C     -1.350276   -4.387621   -1.256777
C      2.546709    5.973096   -0.563977
C      5.051850   -1.582377    2.496122
C     -5.216889    1.370579   -1.275946
C     -2.775471   -4.469435   -1.773988
C      5.015504    2.033419   -0.057872
C     -2.313124    5.196427    0.054064
C      2.277040   -6.199444   -0.061067
C     -4.502080   -1.961338    3.095610
C      1.149654    4.042665   -1.270797
C      3.857505   -1.750821    0.300722
C     -3.236157    0.985540    0.243930
C     -1.407582   -3.640788    0.054475
C      3.516424    1.868450   -0.279106
C     -1.725051    3.886051    0.534273
C      2.191334   -4.695395    0.283112
C     -3.222432   -2.189574    2.270734
C      3.111294    2.422450   -1.593017
C     -2.655459    3.162660    1.431212
C      2.964494   -3.929399   -0.724883
C     -3.358325   -3.590016    1.706478
C      0.116356    3.016216   -0.945979
C      3.062511   -0.490076    0.596999
C     -2.473851   -0.105767    0.972910
C     -0.031913   -3.487786    0.680408
N      2.312385    3.505246   -1.925192
N     -3.529132    2.088160    1.086869
N      3.264265   -2.555544   -0.724349
N     -2.317636   -4.242941    0.996359
O      3.605543    1.757346   -2.588099
O     -2.741447    3.483785    2.679980
O      3.414608   -4.624791   -1.727838
O     -4.433099   -4.228434    1.862128
O      0.502487    1.834821   -1.228891
O      2.398740   -0.650051    1.697148
O     -1.269584    0.315822    1.159834
O     -0.053770   -2.512015    1.491908
O     -1.098415    3.146851   -0.426945
O      3.080964    0.580096   -0.188380
O     -2.977838   -1.249309    1.326909
O      0.907206   -4.327363    0.315684
H      3.244419    7.790983    0.434498
H      1.798535    6.936241    1.191295
H      3.434875    6.235117    1.349246
H      2.865484    7.006111   -2.469448
H      1.130657    6.595339   -2.138195
H      1.949149    7.947034   -1.281803
H      4.473285   -2.891856    4.148920
H      5.556726   -1.553490    4.587415
H      6.257022   -2.926730    3.695461
H      7.214508   -1.317177    2.355268
H      6.204490   -0.394556    1.137655
H      6.502837   -2.141001    0.954973
H     -7.314646    1.253079   -1.825968
H     -6.169307    0.455447   -3.040844
H     -6.552132   -0.298101   -1.438431
H     -3.430529    2.354831   -2.118528
H     -5.058454    2.788908   -2.862337
H     -4.352271    1.194521   -3.225928
H     -3.453625   -6.109691   -2.925208
H     -1.795831   -5.564944   -3.323418
H     -3.289203   -4.622182   -3.893130
H     -4.021379   -2.776355   -1.228761
H     -2.512342   -2.312359   -2.111590
H     -3.883780   -3.046776   -2.982067
H      4.711638    4.065098    0.622541
H      6.436704    3.659058    0.222046
H      5.290607    3.932244   -1.110098
H      6.841065    1.122293   -0.607093
H      5.442694    0.461007   -1.506866
H      6.140018    2.122041   -1.879447
H     -3.487606    4.712284   -1.745181
H     -4.225295    4.303766   -0.176418
H     -4.181025    6.007995   -0.678003
H     -2.025428    5.800557    2.142214
H     -3.547639    6.368414    1.422221
H     -2.012453    7.149223    0.990687
H      4.376736   -5.810176    0.423643
H      4.132895   -6.829368   -1.039824
H      3.909353   -7.517778    0.588006
H      2.480538   -7.152954   -1.992189
H      1.372440   -5.692370   -2.007379
H      0.879347   -7.232714   -1.251395
H     -4.206638   -0.624272    4.813234
H     -5.402233   -0.085390    3.523089
H     -3.639337   -0.005178    3.218539
H     -6.268021   -2.996873    2.522644
H     -6.338192   -1.194938    2.259069
H     -5.351572   -2.291390    1.163799
H      1.886563    4.792252   -3.596276
H      3.593717    4.806396   -3.074814
H      2.847183    3.353427   -3.923200
H     -5.403990    3.058910    1.496282
H     -4.730878    2.129559    2.823530
H     -5.443310    1.197601    1.506156
H      3.579941   -0.909284   -2.064671
H      1.903882   -1.464815   -1.908243
H      3.048546   -2.502719   -2.810066
H     -1.814595   -6.210096    0.319225
H     -3.081509   -6.158677    1.541669
H     -1.433692   -5.828297    2.094283
H      0.628386    5.612427    0.144581
H      1.828275    4.501051    0.770873
H      4.731279   -3.398062    1.420161
H      3.236848   -2.579674    2.161481
H     -5.095899   -0.193269    0.118776
H     -4.002342   -0.375916   -1.244326
H     -0.801035   -3.736385   -1.979364
H     -0.857556   -5.352853   -1.225636
H      3.483883    5.509679   -0.846244
H      4.489764   -0.671815    2.710527
H     -5.578097    2.187878   -0.666492
H     -3.422470   -4.937366   -1.003719
H      5.200578    1.729612    0.985580
H     -1.601350    5.665055   -0.660719
H      1.789913   -6.731801    0.769498
H     -4.517531   -2.678267    3.934400
H      0.567295    4.680328   -2.033869
H      4.867123   -1.344817   -0.060522
H     -2.560910    1.391951   -0.576656
H     -1.751901   -2.606428   -0.248632
H      3.078012    2.597299    0.468065
H     -0.891303    4.224960    1.239098
H      2.782480   -4.660913    1.229082
H     -2.451573   -2.259706    3.124566
