30

C      4.107535   -0.062195    0.483516
C     -3.948597   -0.633996    1.076413
C     -2.631921    0.279712   -1.316200
C      3.715650    1.074490   -0.430767
C     -2.433452   -0.539616    1.019607
C      2.251341    1.456485   -0.173634
C      1.438730    0.234882   -0.460332
C     -0.525873   -0.818930   -0.584588
C     -2.026562   -0.755189   -0.419577
O      0.081314    0.398534   -0.279089
H      3.742817   -1.014764    0.048890
H      3.627108    0.124314    1.464954
H      5.228855   -0.086661    0.575664
H     -4.386325    0.341295    1.369853
H     -4.384063   -0.942031    0.099568
H     -4.240517   -1.440588    1.801500
H     -2.036349    0.373963   -2.238520
H     -3.655374   -0.051458   -1.638517
H     -2.773493    1.240432   -0.794673
H      3.855942    0.725867   -1.470673
H      4.374638    1.958671   -0.301578
H     -1.973504   -1.306047    1.659359
H     -2.120196    0.457582    1.378500
H      2.011882    2.294002   -0.852879
H      2.159304    1.827607    0.852054
H      1.637815   -0.109334   -1.472554
H      1.764704   -0.561406    0.261222
H     -0.345519   -1.119840   -1.650715
H     -0.078602   -1.605640    0.033905
H     -2.437289   -1.740142   -0.721398
