50

C     -2.962093    4.152412   -0.259921
C      6.019315    0.434141    0.916724
C      5.028353    1.154891    1.534868
C      5.702661   -0.269530   -0.239079
C      3.739060    1.172088    1.067058
C      4.426051   -0.246076   -0.715892
C     -1.698875   -3.010861    0.082775
C     -3.577847   -1.665448   -0.362630
C     -2.491227   -3.968288    0.685241
C     -4.420462   -2.589195    0.274692
C     -0.011779   -1.436942   -1.489800
C      1.016431   -1.576485   -0.394320
C      2.027738    0.613397   -0.542460
C      0.014439    0.165643    0.783911
C     -2.212144    1.103484    0.414688
C      3.451178    0.450080   -0.072134
C     -2.222383   -1.856514   -0.443857
C     -1.063260    0.325437   -0.262444
C     -3.859941   -3.720411    0.792813
C     -1.354349   -0.862340   -1.035956
F     -4.646713   -4.678947    1.432761
N      1.215021   -0.258357    0.181405
O     -0.355975    3.995232   -0.252076
O     -1.366547    4.533801    1.847374
O     -1.415034    2.076044    1.005617
S     -1.597733    3.629672    0.708138
H     -3.912056    4.261190    0.331362
H     -2.686094    5.164271   -0.667843
H     -3.093665    3.501387   -1.167121
H      7.000235    0.462870    1.319982
H      5.259505    1.731227    2.455144
H      6.505493   -0.824360   -0.717592
H      2.961351    1.753784    1.588349
H      4.173877   -0.838327   -1.605382
H     -0.632463   -3.318063    0.000881
H     -4.082168   -0.750622   -0.726245
H     -2.030146   -4.853261    1.098915
H     -5.462909   -2.408005    0.369642
H      0.381886   -0.643003   -2.172483
H     -0.138483   -2.319927   -2.103112
H      0.779944   -2.181592    0.471762
H      1.909864   -1.986644   -0.857162
H      2.131244    0.302176   -1.656029
H      1.707670    1.664882   -0.606627
H     -0.275693   -0.315031    1.697177
H      0.247869    1.249046    1.108367
H     -2.742086    0.484755    1.114494
H     -2.858338    1.571954   -0.368755
H     -0.659979    1.122595   -0.978362
H     -1.868742   -0.498231   -1.984289
