23

C     -3.241761    0.445155   -0.511100
C     -0.986201    0.524689    1.263444
C     -2.096885   -0.510628   -0.699575
C      3.893784    0.425535    0.613001
C      0.378513   -0.701450   -0.354627
C     -0.840650    0.179878   -0.184012
C      2.785157   -0.421030    0.112451
Br     5.559232   -0.574191    0.461547
O      2.998322   -1.574040   -0.314739
O      1.490971    0.047603    0.107701
H     -3.825394    0.246109    0.405652
H     -2.857023    1.483352   -0.481042
H     -3.871071    0.391429   -1.439619
H     -2.063444    0.486187    1.567848
H     -0.536065    1.506785    1.464856
H     -0.452802   -0.235346    1.870630
H     -1.965593   -0.791316   -1.759465
H     -2.244569   -1.443397   -0.118063
H      3.974155    1.360013    0.016976
H      3.746204    0.698895    1.669071
H      0.289474   -1.576762    0.325806
H      0.504342   -1.079248   -1.376701
H     -0.638696    1.111780   -0.750214
