50

C     -5.360819    2.049492    0.158328
C      6.206292   -1.302154    1.224967
C      6.219144   -1.480138   -0.142050
C      5.191829   -0.616070    1.835383
C      5.220124   -0.976252   -0.919507
C      4.189955   -0.114574    1.024441
C     -2.944265   -0.683708    1.378854
C     -2.025587   -1.365753   -0.667140
C     -4.121994   -1.364395    1.136544
C     -3.209692   -2.061210   -0.931082
C      0.516475   -0.758585    1.177334
C      1.479174   -0.993194    0.045903
C      3.096022    0.274507   -1.199743
C      0.762622    0.850037   -1.138127
C     -1.511978    1.740433   -0.853053
C      4.178294   -0.278301   -0.345435
C     -1.880414   -0.661718    0.505444
C     -0.309310    1.164544   -0.132219
C     -4.264386   -2.064553   -0.031074
C     -0.653787    0.087942    0.824616
F     -5.409434   -2.751095   -0.312158
N      1.896231    0.319246   -0.408475
O     -3.940969    2.338849   -2.072300
O     -3.896019    4.175145   -0.486006
O     -2.505813    2.031132    0.086830
S     -3.870244    2.668974   -0.603665
H     -5.696672    1.131846   -0.363888
H     -6.142740    2.814028    0.027252
H     -5.218671    1.890721    1.250621
H      6.996896   -1.699175    1.854701
H      7.033536   -2.026116   -0.593851
H      5.182357   -0.477175    2.904968
H      5.243136   -1.123611   -1.991635
H      3.370122    0.438742    1.485304
H     -2.901867   -0.144888    2.335148
H     -1.273170   -1.426318   -1.429851
H     -4.937197   -1.357455    1.849652
H     -3.307785   -2.608543   -1.855200
H      1.119616   -0.196044    1.953432
H      0.245459   -1.698140    1.705408
H      1.015881   -1.477859   -0.848960
H      2.338368   -1.599795    0.406320
H      2.909858   -0.458193   -2.026438
H      3.400688    1.246327   -1.580958
H      1.032217    1.837118   -1.607277
H      0.390479    0.195044   -1.933217
H     -1.187585    2.715272   -1.274388
H     -1.859526    1.120057   -1.680525
H      0.100827    2.042328    0.455668
H     -0.905681    0.633233    1.801104
