41

C     -4.515130   -0.657248   -1.960480
C      4.340157   -2.104633    0.068800
C     -4.955904    0.182847   -0.810076
C     -3.831368    0.954441   -0.156012
C     -2.775962    0.021344    0.374610
C     -1.665949    0.816467    1.021996
C     -0.645399   -0.177585    1.530542
C      0.517477    0.500900    2.201571
C      1.248775    1.431381    1.275630
C      1.814333    0.728175    0.060865
C      2.768574   -0.315435    0.529488
C      3.414764   -1.103201   -0.584629
C      4.181275   -0.289474   -1.526875
O      5.413909   -0.501063   -1.659988
O      3.631574    0.724800   -2.303896
H     -5.412484   -0.886920   -2.592211
H     -4.119751   -1.636354   -1.593385
H     -3.783471   -0.189084   -2.617961
H      3.771269   -2.998670    0.386809
H      5.181334   -2.334585   -0.613800
H      4.775164   -1.608329    0.960623
H     -5.499514   -0.448569   -0.079144
H     -5.690839    0.935669   -1.186002
H     -3.410823    1.707445   -0.838800
H     -4.278393    1.485197    0.712723
H     -2.310499   -0.583428   -0.428657
H     -3.254631   -0.603855    1.152910
H     -1.146437    1.449882    0.253732
H     -2.026122    1.474765    1.828475
H     -0.335038   -0.825800    0.705663
H     -1.166966   -0.786743    2.310503
H      0.111418    1.135546    3.033464
H      1.139643   -0.258288    2.676804
H      0.573411    2.252602    0.997956
H      2.130740    1.823369    1.861539
H      0.956817    0.272068   -0.492306
H      2.269237    1.500894   -0.575860
H      3.533179    0.099738    1.183716
H      2.164932   -1.069147    1.115239
H      2.650631   -1.663062   -1.159762
H      4.236065    1.543941   -2.468518
