12

C     -0.541771    1.123961    0.468883
C     -0.319905   -0.373188    0.240532
C      0.852453   -0.548327   -0.636019
Br    -2.067866    1.393537    1.611728
O     -1.439136   -0.897240   -0.393185
O      0.693916   -1.103517   -1.749053
O      2.108525   -0.109836   -0.243033
H      0.334626    1.586925    0.938421
H     -0.717105    1.637674   -0.487056
H     -0.158324   -0.856919    1.232434
H     -1.625150   -1.826619   -0.079310
H      2.879737   -0.026452   -0.904342
