41

C      6.190603   -0.444023   -0.911155
C     -5.532400    0.429399    1.324135
C      5.566975    0.578794    0.013975
C      4.137343    0.156482    0.349975
C      3.371220    0.081063   -0.941530
C      1.951928   -0.348356   -0.629301
C      1.215066    0.581431    0.273735
C     -0.172471    0.057488    0.528339
C     -0.984798   -0.085419   -0.688394
C     -2.379204   -0.582195   -0.494530
C     -3.240424    0.275229    0.377924
C     -4.609928   -0.399126    0.447741
C     -5.200814   -0.564479   -0.891363
O     -5.455622   -1.705250   -1.333246
O     -5.466520    0.560847   -1.645617
H      5.778334   -0.398155   -1.928188
H      6.072523   -1.464600   -0.509344
H      7.289360   -0.224612   -0.926866
H     -5.346558    0.132732    2.370421
H     -5.154639    1.490064    1.242248
H     -6.590836    0.355467    1.016872
H      5.507084    1.548279   -0.477283
H      6.127308    0.596826    0.955390
H      3.710404    0.963432    0.990188
H      4.139784   -0.782768    0.908849
H      3.374195    1.023924   -1.496661
H      3.789807   -0.717932   -1.601754
H      1.957138   -1.351171   -0.157460
H      1.402393   -0.379547   -1.598684
H      1.061145    1.590893   -0.215092
H      1.731904    0.788844    1.235903
H     -0.607118    0.687515    1.324187
H     -0.020212   -0.946607    1.030468
H     -0.494690   -0.857240   -1.355786
H     -0.964069    0.853649   -1.275087
H     -2.864979   -0.645098   -1.491297
H     -2.370586   -1.610456   -0.078745
H     -3.428647    1.269420   -0.114149
H     -2.889573    0.365467    1.409248
H     -4.496711   -1.385824    0.937487
H     -6.103720    0.505616   -2.415675
