47

C     -1.365974   -0.751115    0.523571
C     -0.329560   -1.786833    0.053218
C     -2.183069   -1.352600    1.609327
C      0.518647   -1.179069   -1.063226
C      3.377827   -0.779095   -0.929728
C      4.841652    2.422234   -0.469017
C      4.860268   -0.790461   -1.214219
C      5.866201    1.418994   -0.916806
C     -4.011946    2.068591    2.625563
C     -4.800848    1.323164    1.596543
C     -3.240490   -0.505171    2.205971
C      1.504316   -2.193970   -1.501366
C     -4.330150   -0.039137    1.367530
C     -4.280823    1.162245   -0.561102
N      2.777651   -2.036945   -1.450443
N     -4.601039    2.006223    0.343449
N     -4.220802   -0.164488   -0.061320
O      3.669551    2.372560   -1.178198
O      1.061140   -3.413493   -2.008799
O     -4.006857    1.454101   -1.915606
O      5.595165    0.173856   -0.843565
S     -2.497747    1.089224    2.799781
H     -1.917110   -0.348187   -0.315950
H     -0.789561    0.109005    0.989753
H     -0.837055   -2.658377   -0.360920
H      0.305432   -2.066849    0.911657
H     -2.575685   -2.367770    1.305443
H     -1.464248   -1.604759    2.456492
H     -0.190591   -0.881047   -1.876095
H      1.013411   -0.296755   -0.629879
H      2.824757   -0.003607   -1.495681
H      3.127205   -0.709489    0.134481
H      4.580089    2.152993    0.600821
H      5.255872    3.462979   -0.461341
H      4.942899   -1.091243   -2.323444
H      5.198747   -1.792421   -0.727913
H      6.792396    1.661715   -0.247497
H      6.286591    1.770830   -1.936523
H     -4.565258    2.005684    3.591569
H     -3.799598    3.117728    2.353886
H     -5.908302    1.397144    1.822913
H     -3.661368   -0.956753    3.147026
H     -5.246816   -0.714226    1.671099
H     -4.126064   -1.037208   -0.647302
H      2.883091    2.233047   -0.627586
H      1.573345   -4.292690   -1.839319
H     -3.905291    2.411437   -2.226540
