128

C      8.412009    0.758388   -0.055500
C     -5.874494   -0.941269    2.107712
C      2.524143   -0.735361    0.816313
C      2.906270    1.504694    0.212516
C      1.507201   -0.771315   -0.149400
C      1.910536    1.459657   -0.727702
C     -5.147446   -1.136650    0.968037
C     -7.710085   -0.872828   -3.180943
C     -6.339005   -1.016401   -3.217567
C      6.354587    1.671813    1.713524
C      6.279615   -0.591132    2.862856
C      4.951487    1.727847    2.306055
C      4.756298   -0.689728    2.653440
C     -5.515347    1.377344    1.894997
C     -0.693357   -0.647002   -2.268161
C     -2.650965   -2.087047   -1.890932
C     -4.396945    0.230385   -2.198359
C     -6.783795    0.675328   -1.986993
C      7.850719   -0.155140    0.970970
C     -6.058855    0.339379    2.575011
C      3.245236    0.416760    1.011485
C      1.164456    0.282873   -0.936361
C     -1.686036   -1.100638   -1.253624
C     -4.567043   -0.094376    0.231359
C     -4.769766    1.164930    0.725222
C     -3.830305   -0.449811   -1.002745
Cl    -6.981247    0.664544    4.032810
Cl    -4.056678    2.530173   -0.107030
N     -7.948113    0.180988   -2.412219
N     -5.773004   -0.059616   -2.479868
N      6.834644    0.312706    1.840346
N      4.288116    0.501231    1.965279
O      8.261315   -1.344862    1.085991
O      0.193038    0.342783   -1.893306
O     -3.801083   -1.843261   -1.174144
O     -2.512837   -0.060958   -0.837876
C      9.563241   -0.623978    0.904875
C     -5.368157    3.050256    0.322394
C      2.488577   -0.559230   -0.425771
C      3.036688    1.720960   -0.467124
C      1.246292   -0.256263   -0.962526
C      1.817138    2.030264   -0.995199
C     -4.884909    1.934596   -0.324874
C     -8.082193   -2.374931    0.978527
C     -7.504821   -1.418041    0.191747
C      5.956967   -1.917159    0.428389
C      7.019935    0.252754   -0.176515
C      4.869579   -1.096163    1.138184
C      5.790593    1.026429    0.215387
C     -5.673391    1.693419    2.232736
C     -1.527202    1.030781   -2.196647
C     -2.117965   -0.855950   -0.591467
C     -5.441357   -1.295313   -1.160004
C     -6.203886   -3.189142    0.207727
C      8.354231   -1.495300    0.926983
C     -5.771847    2.927639    1.628774
C      3.413056    0.424845   -0.165748
C      0.850641    1.027915   -1.269462
C     -2.463931    0.487488   -1.156003
C     -4.774371    0.672262    0.258463
C     -5.187494    0.584353    1.577186
C     -4.349183   -0.463743   -0.565070
Cl    -6.397672    4.320878    2.498679
Cl    -4.996925   -0.939249    2.426178
N     -7.264863   -3.439730    0.966685
N     -6.343122   -1.926367   -0.282774
N      7.115381   -1.059590    0.397170
N      4.677950    0.119622    0.397874
O      8.477524   -2.655541    1.444209
O     -0.329469    1.369562   -1.780845
O     -3.342740   -1.237192   -0.074388
O     -3.712664    0.188075   -1.714026
H      8.576834    1.769773    0.379740
H      7.673443    0.810393   -0.877866
H      9.358182    0.374728   -0.491668
H     -6.320486   -1.746319    2.674641
H      2.718280   -1.624452    1.394674
H      3.431226    2.439911    0.309917
H      0.978074   -1.713716   -0.285070
H      1.657773    2.323040   -1.344928
H     -5.005646   -2.129060    0.606340
H     -8.481375   -1.481641   -3.669736
H     -5.823282   -1.770315   -3.751408
H      6.201425    1.875887    0.613635
H      7.035942    2.407188    2.179464
H      6.714376   -1.581872    2.763545
H      6.518266   -0.143467    3.850256
H      4.410795    2.646787    2.060654
H      5.128744    1.696378    3.425421
H      4.312130   -0.712075    3.682045
H      4.593267   -1.624565    2.088435
H     -5.619649    2.412844    2.203162
H     -1.200400   -0.297979   -3.209016
H     -0.152901   -1.596023   -2.598920
H     -2.229157   -3.108231   -1.705724
H     -2.789935   -1.888416   -2.961519
H     -3.835682   -0.152063   -3.112482
H     -4.185040    1.297888   -2.188846
H     -6.752077    1.554341   -1.335819
H     -1.256390   -1.583384   -0.377331
H     10.442662   -1.155432    1.268139
H      9.318561    0.273279    1.510160
H      9.729167   -0.341158   -0.157610
H     -5.424080    4.012461   -0.206998
H      2.734317   -1.595490   -0.212901
H      3.783380    2.501348   -0.246924
H      0.562049   -1.078447   -1.171575
H      1.534340    3.046916   -1.226936
H     -4.577155    2.094559   -1.374131
H     -9.030055   -2.321850    1.530595
H     -7.923342   -0.444360    0.002442
H      5.595062   -1.991152   -0.633946
H      6.117500   -2.883219    0.899726
H      7.024220    0.207326   -1.293941
H      7.898681    0.892388    0.132496
H      5.378127   -0.780328    2.101522
H      3.977391   -1.681628    1.330539
H      5.593021    1.796390   -0.584407
H      6.003006    1.518559    1.178803
H     -5.994530    1.592961    3.273558
H     -2.105967    1.864370   -2.713735
H     -1.541211    0.215976   -3.017325
H     -1.337568   -0.793017    0.204827
H     -1.805765   -1.558550   -1.412315
H     -4.922048   -2.061945   -1.817473
H     -5.959805   -0.621272   -1.908015
H     -5.389759   -3.880320    0.027649
H     -2.619830    1.195064   -0.315946
