128

C      9.142289    1.137704   -0.790328
C     -6.463614    2.523856    2.224889
C      2.536625   -1.769220    0.316660
C      2.348229    0.385260   -0.613933
C      1.223068   -1.718544    0.709090
C      1.001890    0.432548   -0.209679
C     -5.294128    1.898019    1.872864
C     -5.329571   -0.299103   -3.710430
C     -4.361149   -0.448254   -2.767386
C      6.340495    0.705940   -0.812769
C      6.714995   -1.791970   -0.547251
C      5.104979    0.211516   -1.580594
C      5.261341   -1.899955   -0.267041
C     -7.633015    0.949556    0.913484
C     -1.530761   -1.640086    1.543259
C     -3.017891    0.055158    2.551161
C     -3.582437    0.836411   -0.768594
C     -5.463466    1.371733   -2.302614
C      8.608199   -0.234593   -0.661530
C     -7.653285    2.053503    1.744734
C      3.137200   -0.700203   -0.364847
C      0.420710   -0.620110    0.458053
C     -2.964402   -1.307997    1.845131
C     -5.268646    0.779560    1.029199
C     -6.474501    0.311473    0.553920
C     -3.955559    0.260859    0.593668
Cl    -9.150757    2.851732    2.189442
Cl    -6.560067   -1.159722   -0.388668
N     -5.979897    0.819087   -3.394761
N     -4.428718    0.583659   -1.881075
N      7.209820   -0.438765   -0.674072
N      4.490871   -0.763564   -0.757429
O      9.392116   -1.192077   -0.543850
O     -0.897093   -0.596300    0.864056
O     -2.991671    0.908983    1.462925
O     -3.737921   -1.059789    0.725005
C      8.148198   -1.651832   -1.383385
C     -7.999330    1.366387   -0.771475
C      3.268616   -0.154788    1.713020
C      2.886999    0.963918   -0.332256
C      1.961704   -0.558984    1.694020
C      1.583752    0.576828   -0.377644
C     -6.770007    0.806986   -1.064181
C     -6.396005   -3.606180   -1.034109
C     -6.224652   -2.331577   -1.560535
C      6.931739    0.160547    1.805734
C      7.218099    0.993634   -0.540361
C      5.842602    1.213828    1.893786
C      5.781708    1.524062   -0.550179
C     -7.093691    2.238355    1.249117
C     -1.425882   -0.912723    0.517569
C     -2.270931    1.015644   -0.817832
C     -4.372115   -0.656116   -1.670407
C     -4.377930   -2.923315   -0.657901
C      7.743259   -1.346949    0.009232
C     -8.151122    2.084160    0.394993
C      3.755107    0.629313    0.676480
C      1.061712   -0.220974    0.666222
C     -2.404695    0.294155    0.512206
C     -5.663280    0.930302   -0.231373
C     -5.858649    1.654033    0.917110
C     -4.359793    0.413033   -0.663213
Cl    -9.728317    2.793689    0.754904
Cl    -4.585169    1.911021    2.088826
N     -5.243772   -3.941800   -0.486952
N     -4.994193   -1.904177   -1.335822
N      7.300901   -0.074544    0.427589
N      5.086066    1.114577    0.646565
O      7.797127   -2.284919    0.879969
O     -0.176007   -0.578248    0.613302
O     -3.559667    1.479206   -0.957179
O     -3.680591   -0.168522    0.488836
H      9.089129    1.409059   -1.883768
H      8.566616    1.875497   -0.178569
H     10.206070    1.142890   -0.495347
H     -6.403813    3.395753    2.891547
H      3.149135   -2.634570    0.520135
H      2.741686    1.252719   -1.133518
H      0.761398   -2.543866    1.234460
H      0.439771    1.324412   -0.441650
H     -4.366106    2.298359    2.257283
H     -5.562121   -0.946178   -4.573700
H     -3.635222   -1.231932   -2.686532
H      6.089939    1.067406    0.183566
H      6.787598    1.491929   -1.428823
H      7.068302   -2.360337   -1.429915
H      7.270521   -2.238483    0.329511
H      4.501451    1.052745   -1.875186
H      5.548248   -0.306239   -2.488967
H      4.860037   -2.796693   -0.781121
H      5.078589   -2.058161    0.825232
H     -8.592179    0.591048    0.542073
H     -1.422309   -2.620068    1.047608
H     -0.988249   -1.752327    2.525715
H     -2.142672    0.180477    3.217820
H     -3.977827    0.145613    3.065328
H     -3.595202    1.958066   -0.598916
H     -2.504353    0.627602   -0.988413
H     -5.764629    2.288104   -1.785238
H     -3.398085   -2.049132    2.526607
H      8.876536   -0.858038   -1.691141
H      8.641529   -2.655478   -1.375706
H      7.246014   -1.667009   -2.048643
H     -8.808216    1.220431   -1.477821
H      3.935359   -0.437378    2.521440
H      3.265602    1.578685   -1.150726
H      1.526963   -1.171164    2.476800
H      0.925884    0.868710   -1.205982
H     -6.676699    0.306997   -2.021435
H     -7.312976   -4.178665   -1.084157
H     -7.068277   -1.860054   -2.081639
H      6.501371   -0.771751    2.254782
H      7.797298    0.467231    2.440783
H      7.852256    1.820866   -0.137338
H      7.526763    0.663208   -1.538378
H      6.305745    2.248848    1.933716
H      5.229573    1.061518    2.783300
H      5.305883    1.131888   -1.486552
H      5.758808    2.626576   -0.612155
H     -7.182996    2.787193    2.157562
H     -1.698019   -1.471651   -0.439307
H     -1.752947   -1.637613    1.319403
H     -1.890477    0.380476   -1.618615
H     -1.625428    1.904999   -0.629024
H     -3.337648   -0.902174   -2.014110
H     -4.892423   -0.269454   -2.598585
H     -3.372271   -2.992782   -0.281618
H     -2.108993    0.957555    1.353709
