28

C      2.275858   -1.462707   -1.314655
C     -2.983953    2.007179   -0.096540
C     -1.767574    2.430795   -0.620157
C     -1.068700   -2.327526    0.708766
C     -3.089802    0.722407    0.378839
C     -2.130969   -1.462551    0.789941
C     -0.697662    1.538610   -0.647504
C      0.112122   -1.850430    0.174533
C      2.323805    0.987001    1.223903
C      1.566854   -0.161831   -0.798101
C     -2.030863   -0.179315    0.359615
C      0.292425   -0.561480   -0.282179
C     -0.825224    0.261787   -0.169946
N      2.455283    0.303794    0.198089
O      3.512249    1.242663    1.985886
H      2.699388   -2.038600   -0.505965
H      3.052869   -1.163046   -2.072533
H      1.486565   -2.001825   -1.859173
H     -3.829936    2.701608   -0.081431
H     -1.704982    3.443521   -1.002207
H     -1.147169   -3.352600    1.048180
H     -4.021930    0.367321    0.795608
H     -3.068806   -1.792793    1.198341
H      0.205469    1.900696   -1.056842
H      0.919194   -2.589377    0.131150
H      1.438333    1.438849    1.658174
H      1.611659    0.504708   -1.658130
H      4.415496    1.093142    1.514337
