66

C     -8.641206   -1.793597   -0.216999
C     -8.462747   -0.725723    0.829024
C     -8.138075    0.614835    0.221269
C     -6.868862    0.491390   -0.576853
C     -5.756047    0.054664    0.346238
C     -4.478148   -0.058341   -0.458595
C     -3.305521   -0.489107    0.344443
C     -2.919990    0.390419    1.480322
C     -2.554743    1.788563    1.113975
C     -1.403231    1.893223    0.172656
C     -0.135963    1.271364    0.728669
C      1.002481    1.390119   -0.241317
C      2.245102    0.753430    0.357000
C      2.090111   -0.692675    0.665886
C      3.338806   -1.294923    1.232364
C      6.743876   -1.570699   -0.390907
C      8.231112   -0.114008   -1.708062
C      6.982694   -0.143341   -0.804917
C      4.432511   -1.236105    0.234701
O      7.325249    0.598506    0.350300
O      4.228851   -0.825173   -0.926841
O     10.553614   -1.803141   -3.163578
O     11.961876   -1.252154   -0.873802
O     11.012343    0.634444   -2.378899
O      5.720431   -1.633776    0.549230
O      9.254046   -0.715801   -0.956269
P     10.669638   -0.739615   -1.841129
Na     0.000000    0.000000    0.000000
Na     0.000000    0.000000    0.000000
H     -7.731442   -1.972492   -0.818252
H     -9.439111   -1.487687   -0.903178
H     -8.848729   -2.740435    0.325381
H     -9.474287   -0.600050    1.312521
H     -7.780079   -0.988925    1.635273
H     -8.977991    1.017061   -0.381436
H     -7.922689    1.343977    1.044584
H     -6.600972    1.511039   -0.923244
H     -6.982159   -0.184680   -1.450618
H     -5.697131    0.763798    1.171192
H     -5.956591   -0.957859    0.806154
H     -4.312408    0.873351   -1.020832
H     -4.662732   -0.847478   -1.223224
H     -2.431648   -0.549102   -0.343390
H     -3.488293   -1.507494    0.741613
H     -3.735595    0.471064    2.257770
H     -2.094706   -0.136293    2.031638
H     -2.320386    2.339934    2.044590
H     -3.431680    2.255255    0.628602
H     -1.590335    1.514052   -0.830740
H     -1.166881    2.986171    0.060068
H      0.191365    1.806037    1.663681
H     -0.311312    0.233665    0.999317
H      0.790032    0.917595   -1.221676
H      1.278082    2.466847   -0.417391
H      2.426140    1.338739    1.316687
H      3.104604    0.963604   -0.292526
H      1.809540   -1.257092   -0.254882
H      1.265731   -0.906528    1.383285
H      3.164054   -2.362523    1.518120
H      3.665500   -0.779774    2.172041
H      7.675099   -2.011420    0.032133
H      6.451759   -2.168539   -1.307298
H      8.447714    0.940615   -1.936811
H      8.024299   -0.643557   -2.649788
H      6.148380    0.297618   -1.344658
H      7.386644    1.540496    0.087385
