45

C      2.828184   -0.185008    1.396484
C     -4.160098    1.339473   -1.566406
C     -0.823814   -2.102138    1.824201
C     -1.958321   -1.949218    1.012031
C      2.277493    1.205965    1.200211
C     -4.133239    2.184603   -2.780940
C     -2.049002   -0.815841    0.021446
C      1.007843    1.268821    0.336492
C     -1.020202    0.177258   -0.111006
C      1.967642    1.147777   -0.758856
C     -2.818653   -3.800334    2.038770
C      3.022187   -2.299656    0.270964
N     -3.628407   -4.759699    2.354691
N      3.636892   -2.817231    1.277090
N     -2.920228   -2.834905    1.171416
N      0.079550    0.225722    0.574426
N     -3.086260   -0.718844   -0.733618
N      2.905459    1.820143    0.059236
O     -3.411414    1.882419   -3.734338
O     -4.927233    3.309977   -2.826334
O     -1.250147    1.181106   -1.081259
O      2.058530    0.686955   -1.937480
O      2.810211   -3.127260   -0.833901
O      4.350655    3.342101   -1.810577
O      5.493971    2.203173    0.203441
O      4.101221    4.123976    0.684919
O      2.583651   -0.980245    0.269560
O     -3.302359    0.241075   -1.663807
S     -1.224994   -3.549268    2.790987
S      4.206933    2.891932   -0.204571
Na     0.000000    0.000000    0.000000
H      3.949478   -0.043582    1.446752
H      2.523026   -0.641706    2.352664
H     -5.223404    1.072224   -1.389301
H     -3.851280    1.963733   -0.705541
H      0.085930   -1.539933    1.901307
H      2.222496    1.814147    2.115508
H      0.607902    2.301837    0.385343
H     -4.534059   -4.879172    1.910488
H      3.844656   -2.291800    2.145363
H     -3.848627   -2.797007    0.581338
H     -5.039607    3.777300   -3.700654
H     -0.463325    1.804507   -1.273391
H      3.556048   -3.749993   -1.158499
H      3.554720    3.916621   -2.054651
