39

C     -2.059705    0.153980   -0.306694
C     -0.709317   -0.327195   -0.854517
C      1.572635   -0.875784   -0.058279
C      2.366922    0.102459    0.318897
C      0.208350   -0.538541    0.357490
C      1.587028    1.129511    0.996385
O     -2.612144   -0.799899    0.533330
O     -0.167336    0.631406   -1.690849
O      1.927961   -2.038338   -0.733153
O      3.749071    0.109527    0.081533
O      2.051760    2.215335    1.487764
O      0.286569    0.697269    0.995347
C     -1.913866    0.549291   -0.695977
C     -1.155595    0.266028    0.579594
C      0.975144   -0.276546   -0.596202
C      2.114680   -0.342743    0.069037
C     -0.077195   -0.755298    0.317330
C      1.923603   -0.847638    1.416573
O     -2.962824    1.457712   -0.434977
O     -2.084310   -0.281311    1.476304
O      0.842561    0.170430   -1.917306
O      3.369432    0.017518   -0.423268
O      2.804239   -1.030423    2.303363
O      0.565145   -1.090724    1.533404
Fe     0.000000    0.000000    0.000000
H     -2.745736    0.386587   -1.125225
H     -1.891720    1.073767    0.278089
H     -0.861477   -1.286066   -1.390032
H     -0.253367   -1.328677    0.997182
H     -2.189528   -0.836636    1.422756
H     -0.259967    1.531294   -1.310023
H     -2.377292   -0.369174   -1.073976
H     -1.286934    1.001865   -1.488919
H     -0.692608    1.154307    1.012574
H     -0.564088   -1.675333   -0.106506
H     -2.657901    2.359581   -0.661238
H     -1.617008   -0.946404    2.049782
H      1.044863    1.144801   -2.167925
H      3.749953   -0.505941   -1.191666
