57

C      1.919915   -1.457753   -4.215847
C     -6.021349    0.590953    0.828121
C     -2.653586   -0.385980   -2.816312
C      2.791545    1.947798    0.218565
C      3.140478   -0.252516    0.927067
C      3.772407    2.401626    1.073128
C      4.122879    0.148310    1.792197
C     -2.000303    0.096887    3.224627
C      0.656482   -2.241558   -2.290366
C     -3.096365    0.380352    4.039532
C      0.306863   -2.001183   -0.863473
C      2.081008   -0.314697   -2.080521
C     -3.887413    0.078189   -0.386210
C     -0.299081   -0.424367    0.808546
C      1.107404   -0.994905   -3.005012
C     -4.545749    0.317757    0.793667
C      2.442253    0.621370    0.113707
C      4.456890    1.494869    1.878986
C     -2.444752    0.045954    1.914980
C     -1.742154   -0.204155    0.717737
C      1.379063    0.176044   -0.822227
C     -2.508260   -0.177878   -0.423481
C     -3.793462    0.296610    1.947314
C      5.490077    1.956483    2.782281
N     -4.159851    0.493214    3.227180
N      0.455177   -0.744749   -0.307651
O      5.810861    3.292487    2.860924
O      6.101492    1.137294    3.501784
O     -1.879159   -0.409997   -1.639510
H      2.743538   -0.738968   -4.385187
H      2.429499   -2.431431   -3.959376
H      1.317311   -1.520060   -5.125564
H     -6.350215    0.663373    1.884772
H     -6.263619    1.561256    0.349050
H     -6.601981   -0.200133    0.349078
H     -3.514794   -1.079189   -2.687231
H     -3.096801    0.647484   -2.870012
H     -2.065349   -0.622529   -3.716245
H      2.285152    2.669324   -0.386395
H      2.919456   -1.328545    0.901287
H      3.995498    3.468768    1.102474
H      4.652443   -0.550866    2.415565
H     -0.981957   -0.060813    3.514310
H     -0.252312   -2.592438   -2.866510
H      1.405775   -3.040420   -2.468248
H     -3.032957    0.477736    5.116457
H      1.044842   -2.685478   -0.288784
H     -0.650822   -2.514991   -0.657658
H      2.539034    0.519241   -2.614737
H      2.807583   -1.090382   -1.750623
H     -4.449513    0.088316   -1.301911
H     -0.143748   -1.227885    1.581116
H      0.110721    0.557214    1.228348
H      0.280259   -0.328057   -3.317742
H      0.829736    1.095926   -1.132933
H     -5.119017    0.704062    3.573138
H      6.158930    3.693028    3.713826
