53

C     -3.927890   -2.157659   -0.027361
C     -3.918058   -0.472932   -1.792706
C     -1.952104    2.546366    0.111453
C     -0.908595    1.699989    2.143720
C      2.829257   -0.404126   -2.022795
C      5.354177    2.478943    0.323690
C      0.065354   -1.818486   -1.183954
C     -1.314709   -1.789736   -1.116649
C     -4.035508    0.285927    0.527335
C     -3.112576    0.879661    1.534265
C      0.187463    0.120187    0.111862
C      2.706018   -2.715580    1.110802
C      4.401988    0.442689    0.173025
C      0.843636   -0.867287   -0.573888
C     -1.961715   -0.761247   -0.404801
C     -1.200232    0.186954    0.204776
C      3.172697   -1.819033    0.055416
C      3.148651   -0.341012    0.489169
C     -3.452244   -0.746274   -0.359022
C     -1.797622    1.292980    0.960836
C      2.307912   -0.879140   -0.657573
O      1.717402   -2.571387    1.803793
O      4.217659    1.735512    0.628655
H     -5.011204   -2.062336    0.235929
H     -3.376368   -2.522676    0.856427
H     -3.816792   -2.823664   -0.905553
H     -4.881967   -0.967765   -2.006912
H     -3.155025   -0.895445   -2.489120
H     -4.029243    0.612515   -1.938101
H     -1.020033    2.738166   -0.468359
H     -2.104995    3.392093    0.781955
H     -2.756437    2.425724   -0.613409
H     -0.530536    0.785916    2.640745
H     -0.082059    2.314245    1.790457
H     -1.563705    2.253512    2.862176
H      3.795551   -0.877693   -2.214307
H      2.076871   -0.703656   -2.800141
H      2.858392    0.691028   -2.008992
H      5.244519    3.523110    0.684410
H      5.447550    2.495660   -0.790519
H      6.281166    2.029039    0.709184
H      0.518262   -2.622700   -1.738835
H     -1.900594   -2.554421   -1.609851
H     -4.514174    1.127399   -0.059888
H     -4.906612   -0.150701    1.101920
H     -2.959194    0.147929    2.374113
H     -3.633883    1.777961    1.959658
H      0.759145    0.889082    0.610560
H      3.286023   -3.622419    1.327080
H      5.313149    0.003196    0.639756
H      4.564244    0.485250   -0.929921
H      4.111331   -2.151168   -0.464679
H      2.615659   -0.062489    1.396025
