45

C      2.583290   -0.769895    1.056782
C     -2.941737   -2.497845   -0.179842
C     -4.063419    1.967008    1.463301
C     -2.892397    1.869878    0.663642
C      2.211631   -1.185806   -0.312408
C     -4.094473   -3.375857    0.003333
C     -2.247987    0.531938    0.542860
C      0.776828   -1.430568   -0.525889
C     -0.903699    0.289793   -0.007487
C      1.068956   -0.875274   -1.932389
C     -3.260179    4.068371    0.012121
C      4.959708   -0.022931    1.310587
N     -3.189105    5.200838   -0.539017
N      5.600371   -0.719541    0.478428
N     -2.561463    2.904443   -0.005799
N     -0.367314   -0.813658   -0.101620
N     -2.839731   -0.452393    0.953655
N      2.158635   -0.222947   -1.387665
O     -4.767054   -3.202948    1.106483
O     -4.528787   -4.336747   -0.849534
O     -0.235411    1.415063   -0.458865
O      0.425842   -1.086160   -3.024194
O      5.736568    0.763040    2.196626
O      4.445727    0.561301   -2.650046
O      3.415164    2.082567   -0.764384
O      2.314891    1.942635   -2.913477
O      3.632112    0.002323    1.377582
O     -2.857294   -1.746683    1.140040
S     -4.625168    3.620446    1.171371
S      3.068635    1.159787   -1.896998
Na     0.000000    0.000000    0.000000
H      2.867320   -1.890921    1.541602
H      1.702934   -0.584452    1.707258
H     -2.996835   -1.734209   -0.942341
H     -1.977881   -3.033015   -0.195058
H     -4.537371    1.187610    2.078178
H      2.831379   -2.043120   -0.701024
H      0.660529   -2.591314   -0.662383
H     -3.902796    5.928133   -0.320468
H      5.141788   -1.329939   -0.219832
H     -1.706515    2.937570   -0.688558
H     -5.531468   -4.591316   -0.755632
H      0.190457    1.518545   -1.371304
H      6.689940    0.965767    1.995072
H      4.545379   -0.379517   -2.465519
