60

C     -2.629564    1.900693   -1.231218
C     -3.872481    0.610419    0.390274
C     -3.652419    2.825692   -1.236048
C     -4.885191    1.543445    0.373827
C      2.947600    1.033215    1.040341
C      4.264330    1.444089    1.022490
C     -2.043005   -1.517029   -0.980555
C     -2.702987   -2.496867   -0.079415
C      3.415989   -0.755044   -0.448028
C     -1.010479   -1.775821    1.462192
C      0.262140    0.270279    1.134231
C      7.039329   -0.226324   -0.599711
C     -2.757561    0.796450   -0.409549
C     -1.097851   -0.363595    0.992116
C     -4.780779    2.664497   -0.444980
C      2.493407   -0.050215    0.325028
C     -1.681538   -0.200409   -0.383638
C      5.151253    0.721548    0.244870
C      4.740360   -0.363337   -0.482495
F     -5.800947    3.540637   -0.418567
N     -2.247647   -2.509835    1.275083
O      1.167702   -0.471757    0.336970
O      6.523174    0.928189    0.056607
O      5.873530   -0.836197   -1.131033
C     -0.280618   -0.493140    0.795700
C      0.370443   -0.512839   -0.578501
C     -1.421752    0.442602    0.844291
C      1.072380    0.750896   -0.817763
O     -0.795125   -1.794274    0.995161
O      1.366094   -1.528072   -0.547564
O     -2.609659   -0.038074    0.923466
O     -1.262780    1.819852    0.810477
O      0.502497    1.856570   -1.005742
O      2.479411    0.790856   -0.850191
H     -1.750396    2.047922   -1.862167
H     -3.902975   -0.273386    1.007536
H     -3.584939    3.701535   -1.867176
H     -5.745123    1.370558    1.010441
H      2.216216    1.566367    1.633567
H      4.614092    2.297369    1.587859
H     -1.086237   -1.999480   -1.339933
H     -2.656856   -1.402704   -1.896608
H     -3.826136   -2.408111   -0.054003
H     -2.554694   -3.513469   -0.559938
H      3.079305   -1.612715   -1.020065
H     -0.833011   -1.750976    2.566325
H     -0.138693   -2.300586    1.018467
H      0.578804    0.132987    2.185500
H      0.233012    1.343244    0.863521
H      7.763838    0.056166   -1.384315
H      7.562768   -0.864348    0.117220
H     -1.774610    0.179836    1.697180
H     -0.832476    0.199498   -1.017700
H     -2.078253   -3.482431    1.614174
H      0.402866   -0.272266    1.608795
H     -0.370216   -0.703339   -1.358442
H     -1.395106   -1.972892    0.247149
H      0.920788   -2.403968   -0.694646
H     -1.952917    2.392087    0.325965
H      2.973696    1.666001   -0.698156
