40

C      3.087351    1.567278    1.519666
C      4.763722    0.853886   -0.273146
C      0.703004   -2.693945   -0.887107
C      2.624080   -0.321942    0.098392
C      1.350529   -0.508438    0.788576
C     -2.027140    2.274560   -0.571610
C     -4.286193    1.738045   -0.141730
C     -1.436694   -2.158654    0.155166
C     -0.173401    0.800478   -0.577854
C     -3.859586   -1.696117    0.423372
C      3.461866    0.647756    0.421554
C     -0.285496   -1.597017   -0.651010
C     -1.658472    0.970270   -0.387672
C     -3.331229    2.666541   -0.451529
C     -3.965707    0.421241    0.051801
C     -2.632876    0.035805   -0.073640
Cl    -3.825149    4.325880   -0.681885
N     -4.693339   -0.654828    0.355365
N      0.195762   -0.434732   -0.010328
N     -2.589164   -1.282305    0.161162
H      2.170321    2.147152    1.333351
H      2.909932    1.018683    2.480341
H      3.944460    2.269927    1.702573
H      4.728810    0.558792   -1.333009
H      4.990014    1.935659   -0.244050
H      5.569362    0.327049    0.293073
H      1.276631   -2.513399   -1.810171
H      0.104288   -3.627188   -1.101076
H      1.336257   -2.950514   -0.031392
H      2.912925   -0.985050   -0.705172
H      1.362771   -1.468116    1.344918
H      1.233628    0.285914    1.591443
H     -1.273604    3.012135   -0.816301
H     -5.333610    2.039539   -0.042724
H     -1.093445   -2.316003    1.205065
H     -1.749210   -3.144168   -0.268466
H     -0.007075    0.883309   -1.671879
H      0.312106    1.631859   -0.061236
H     -4.072179   -2.725515    0.643008
H     -0.744253   -1.333827   -1.651122
