64

C      7.896044    0.558966    2.288814
C     -4.405953    3.872455    1.310968
C     -3.010858    3.774426    1.389344
C     -2.049800   -3.129935    1.670075
C     -3.328239   -3.633980    1.568584
C     -5.193457    2.772970    1.008200
C     -2.420073    2.559297    1.159727
C     -1.807236   -1.798256    1.353777
C     -4.376687   -2.827145    1.154292
C      4.453115    1.057910    0.003742
C      4.772528   -1.152480   -0.929617
C      5.604399    0.902049    0.773821
C      5.908268   -1.290263   -0.161299
C      2.840873    0.233664   -1.623331
C      1.615857   -0.262850   -0.852460
C     -1.741601   -0.244342   -2.147472
C     -1.115829    0.482220    0.140214
C      0.426140   -0.840138   -2.872890
C     -5.625545    0.537061    0.477106
C      4.078733    0.020543   -0.822458
C     -4.603581    1.525843    0.771408
C     -0.770283   -0.479649   -1.009917
C     -0.954740   -0.469251   -3.421322
C      6.319382   -0.273065    0.681281
C     -3.239907    1.500037    0.863429
C     -2.876157   -1.027233    0.943706
C     -4.140075   -1.514159    0.841700
N      0.467553   -0.022121   -1.675511
N     -2.430516    0.314468    0.651304
O     -1.476870   -1.489681   -4.193421
O      7.458483   -0.455471    1.428316
O     -5.264044   -0.803604    0.443431
Cl     0.689105    0.000000    0.000000
H      7.087117    0.928746    2.920706
H      8.367113    1.384000    1.711933
H      8.640686    0.082252    2.985900
H     -4.864622    4.832446    1.492071
H     -2.389815    4.610161    1.621204
H     -1.224265   -3.744538    1.991511
H     -3.485577   -4.667965    1.819429
H     -6.257185    2.874328    0.953883
H     -1.331604    2.382310    1.206261
H     -0.844176   -1.314628    1.425734
H     -5.364244   -3.233574    1.081002
H      3.899713    1.986100    0.085331
H      4.450467   -1.944366   -1.587923
H      5.928972    1.712165    1.442654
H      6.470341   -2.202143   -0.225578
H      2.991952   -0.330036   -2.565900
H      2.719529    1.299696   -1.898603
H      1.732280   -1.295272   -0.526276
H      1.539250    0.371097    0.041709
H     -2.077209    0.798580   -2.099259
H     -2.572523   -0.971283   -2.153998
H     -1.107955    1.430121   -0.446330
H     -0.305746    0.569127    0.864624
H      1.217378   -0.480026   -3.551053
H      0.482714   -1.919305   -2.655522
H     -6.201667    0.813269   -0.455779
H     -6.409754    0.630804    1.288795
H     -0.599993   -1.495526   -0.766071
H     -0.806799    0.473184   -3.995629
H     -0.694298   -1.978010   -4.587412
H     -0.689105    0.000000    0.000000
