29

C     -1.406197   -1.805449   -1.897244
C     -0.311574   -1.805496   -1.053303
C     -2.356416   -0.823425   -1.724302
C     -2.997334    2.145478    0.430426
C     -2.089170    1.738243    1.569600
C      1.996103   -1.943145    1.071819
C      3.290268    0.105025    0.095486
C      2.375602   -1.038897    0.004312
C     -0.125526   -0.875287   -0.051191
C      1.069142   -0.842504    0.802571
C     -2.220164    0.125831   -0.741276
C     -1.110108    0.080632    0.074411
N      3.375100    0.871038   -0.956807
O      4.157897    1.962023   -1.064304
O     -3.143480    1.133759   -0.522103
O     -0.953592    1.040128    1.084637
H     -1.515383   -2.560250   -2.669251
H      0.424249   -2.564985   -1.191431
H     -3.226248   -0.820191   -2.389410
H     -3.980617    2.443165    0.850031
H     -2.570822    3.049886   -0.079102
H     -1.746479    2.636177    2.096563
H     -2.617544    1.091525    2.291798
H      1.640724   -2.962693    0.820843
H      2.537779   -1.977370    2.069991
H      3.887447    0.349868    0.960414
H      2.276037   -1.438474   -1.036128
H      1.090441   -0.021953    1.581556
H      4.249869    2.707339   -0.428605
