29

C     -1.393269   -2.605774    1.020868
C     -0.216503   -2.205652    0.378615
C     -2.467767   -1.744869    1.072811
C     -3.208736    1.756389    0.324655
C     -2.375863    1.813215   -0.939497
C      2.301550   -1.341611   -0.999853
C      3.091131    0.969312   -0.182704
C      2.247869   -0.223867    0.044274
C     -0.134001   -0.956752   -0.198546
C      1.104807   -0.510094   -0.885702
C     -2.403897   -0.493077    0.501800
C     -1.216477   -0.133457   -0.127032
N      4.096794    1.149753    0.605365
O      4.959626    2.206924    0.512606
O     -3.487098    0.374679    0.554235
O     -1.165349    1.127854   -0.697124
H     -1.432023   -3.588989    1.464834
H      0.602510   -2.894592    0.353327
H     -3.382781   -2.033366    1.562356
H     -4.173838    2.266926    0.202951
H     -2.612168    2.180635    1.178050
H     -2.178142    2.885606   -1.167549
H     -2.908783    1.304377   -1.753347
H      2.960577   -1.154043   -1.889244
H      2.301125   -2.389964   -0.651604
H      2.834081    1.639806   -0.994749
H      2.163242   -0.546188    1.105119
H      0.948623    0.288131   -1.656083
H      5.144759    2.858687    1.261168
