62

C      9.459031    0.473159    1.114096
C     -6.908015   -2.893621   -0.194124
C     -5.815497    3.659439    0.719725
C     -6.214659   -2.434248    0.896305
C     -6.482969   -2.647454   -1.476847
C     -5.344665    2.705390    1.589851
C     -5.424985    3.666386   -0.600723
C      1.927937   -1.009647    2.062078
C      2.209536   -0.917076   -2.570005
C      1.298783   -0.148674    1.177975
C     -5.043483   -1.695578    0.693337
C     -5.326658   -1.917299   -1.640730
C     -4.464282    1.733016    1.139874
C     -4.555092    2.697178   -1.025095
C      2.229723    0.595615   -2.642820
C      3.296754   -1.028472    2.171038
C      0.789626   -1.248506   -2.192418
C      1.287595    1.609781   -0.532230
C      3.399265    0.700035    0.486191
C      6.150139   -0.959109    2.296556
C      2.016615    0.712499    0.382524
C     -4.578339   -1.423533   -0.569644
C     -4.065077    1.726730   -0.177940
C      1.029079    1.004357   -1.867413
C      4.036001   -0.170083    1.379924
C      0.131431   -0.192483   -1.803430
C      7.618383   -0.692770    2.137008
C     -3.358593   -0.648864   -0.813006
C     -3.137490    0.696291   -0.643845
C     -1.266266   -0.127591   -1.363346
N     -2.162195   -1.125433   -1.264323
O      8.456492   -1.328099    2.824280
O      8.087292    0.248882    1.238877
O      5.412658   -0.129933    1.432994
O     -1.904125    0.959416   -0.976021
H      9.884258    1.154687    1.870024
H      9.726958    0.908914    0.122108
H     10.018925   -0.503690    1.177522
H     -7.817196   -3.467356   -0.051321
H     -6.511435    4.444442    1.034877
H     -6.543687   -2.623966    1.913287
H     -7.051729   -3.024470   -2.340516
H     -5.677885    2.733445    2.629975
H     -5.781946    4.411103   -1.313178
H      1.335039   -1.672542    2.671211
H      2.349418   -1.351445   -3.579625
H      2.940866   -1.330444   -1.876353
H      0.222144   -0.154503    1.113802
H     -4.484302   -1.332142    1.545846
H     -4.981251   -1.716364   -2.630175
H     -4.081364    0.979687    1.813979
H     -4.237256    2.684588   -2.051908
H      2.065716    0.879849   -3.710326
H      3.177369    1.044894   -2.353191
H      3.848942   -1.674952    2.840165
H      0.429947   -2.269459   -2.262247
H      0.319484    1.950974   -0.100879
H      1.861634    2.557375   -0.705882
H      3.973621    1.366807   -0.125891
H      5.888233   -2.004250    2.059965
H      5.910105   -0.703419    3.368618
H      0.431441    1.770968   -2.448560
