66

C      5.283935    0.497586   -3.073988
C      7.046631   -0.903969   -0.684799
C      5.472716   -0.922411   -2.594766
C     -5.645460   -0.990083   -2.085693
C     -4.921896   -1.769465   -1.022706
C     -4.754804   -0.121496   -2.921779
C      0.990327   -2.668382    1.824518
C     -4.113418   -0.877185   -0.103433
C     -3.710409    0.522662   -2.042632
C      0.407396   -1.548787    2.338023
C      1.960573   -2.569557    0.822250
C      2.085122    1.111426    0.390449
C      0.717527    1.738874    0.028033
C     -3.546179    1.538310    0.247371
C     -1.190274    0.784208    2.955677
C     -2.065789    1.239965    0.344269
C     -1.836382    2.097776    2.571987
C     -4.247938    0.532192   -0.628591
C      0.767840   -0.288319    1.873578
C      0.198045    0.971967    2.380781
C      1.727059   -0.243938    0.885967
C      0.004268    1.981537    1.308291
C      2.331192   -1.328196    0.348606
C      4.626251   -1.115887   -0.232737
N      5.684626   -0.983982   -1.160146
N     -1.426268    2.204376    1.180152
O      4.913115   -1.156664    0.987164
O      3.286595   -1.200884   -0.640695
Cl     0.690233    0.000000    0.000000
H      6.005530    1.182625   -2.541050
H      4.279075    0.889356   -2.926741
H      5.536901    0.592544   -4.149635
H      7.773919   -1.315326   -1.418947
H      7.356109    0.136836   -0.488167
H      7.202669   -1.474942    0.252311
H      6.367941   -1.318575   -3.153269
H      4.601368   -1.501117   -2.914699
H     -6.078207   -1.758566   -2.786041
H     -6.537031   -0.451349   -1.685410
H     -4.306414   -2.533102   -1.531941
H     -5.696495   -2.330683   -0.453979
H     -4.272439   -0.689503   -3.751807
H     -5.389767    0.709359   -3.332552
H      0.750354   -3.682971    2.146671
H     -4.480256   -0.989239    0.925993
H     -3.051808   -1.210554   -0.204112
H     -3.433644    1.538155   -2.390474
H     -2.794438   -0.120368   -2.057838
H     -0.333177   -1.636500    3.103978
H      2.411765   -3.467024    0.427057
H      2.622601    1.027176   -0.576016
H      2.626075    1.720639    1.113019
H      0.875275    2.668922   -0.519270
H      0.229942    0.934732   -0.577141
H     -3.648502    2.523960   -0.249658
H     -4.073426    1.572789    1.195978
H     -1.713743   -0.097381    2.593181
H     -1.158434    0.710599    4.074607
H     -1.820928    0.208268    0.580583
H     -1.687484    1.435305   -0.705798
H     -2.902311    2.151020    2.748120
H     -1.256698    2.890981    3.115763
H     -5.325699    0.790288   -0.616834
H      0.872643    1.383932    3.187167
H      0.404333    2.978042    1.693714
H     -0.690233    0.000000    0.000000
