63

C     -8.482980    1.153471    0.096133
C     -7.961254   -0.216755   -0.230065
C      6.397205    1.091748   -1.544347
C      6.625287    0.734641   -0.091767
C      5.745457   -0.035470   -2.312795
C     -3.270949    2.242647   -0.001321
C      5.275310    0.388487    0.504428
C      4.394164   -0.397989   -1.649475
C     -2.023830    2.072582    0.539985
C     -4.106283    1.143644   -0.125656
C     -2.013846   -1.593817    1.249080
C     -0.632146   -1.740053    0.588453
C      3.792386   -1.669476    0.473909
C      0.799958    1.498869    1.212329
C      2.576162   -1.201976    1.111718
C      1.504181    0.757635    0.077701
C      4.709537   -0.767726   -0.255046
C     -1.600789    0.812231    0.959584
C     -0.288991    0.568143    1.568085
C     -2.476947   -0.250785    0.810939
C      0.290754   -0.773549    1.263473
C     -3.755785   -0.109804    0.263178
C     -5.801786   -1.245575   -0.339897
N     -6.572527   -0.343273    0.168913
N      1.517936   -0.555221    0.525009
O     -6.212561   -2.163386   -1.296338
O     -4.535066   -1.205058    0.161689
Cl     0.690529    0.000000    0.000000
H     -7.894651    1.592380    0.929578
H     -8.387074    1.845222   -0.787775
H     -9.538145    1.100234    0.439126
H     -8.592544   -0.978978    0.302772
H     -8.109653   -0.407557   -1.304191
H      5.762065    1.999710   -1.607847
H      7.383974    1.260554   -2.025476
H      7.345647   -0.085464   -0.000477
H      6.978884    1.673824    0.395957
H      5.615368    0.269055   -3.347986
H      6.396995   -0.923676   -2.169755
H     -3.626723    3.209912   -0.335681
H      4.686437    1.342291    0.390997
H      5.448175    0.156786    1.577130
H      4.019294   -1.258404   -2.250428
H      3.752240    0.473330   -1.797973
H     -1.347704    2.890118    0.657316
H     -5.060300    1.298693   -0.546124
H     -2.695934   -2.388824    0.898424
H     -1.965468   -1.641433    2.337823
H     -0.753351   -1.445096   -0.461540
H     -0.285443   -2.774524    0.732355
H      3.661420   -2.600072   -0.156590
H      4.442906   -2.106989    1.318233
H      1.547943    1.500326    2.048165
H      0.573231    2.529485    1.004313
H      2.113598   -2.060860    1.739912
H      2.907035   -0.530503    2.000814
H      2.406320    1.267140   -0.212589
H      0.789129    0.842132   -0.794392
H      5.696317   -1.431974   -0.406611
H     -0.452369    0.693740    2.690495
H      0.519423   -1.256966    2.267589
H     -7.229639   -2.247797   -1.413836
H     -0.690529    0.000000    0.000000
