50

C     -3.865256   -2.614736    1.268786
C      3.150754   -1.128319   -0.334764
C      3.605245    1.175113    0.558087
C      7.645850   -0.375385    0.128020
C      2.065111   -0.373734   -1.048313
C      2.132506    1.162071    0.966996
C      6.512491   -0.179174    0.884577
C     -1.668444    2.169727   -1.348402
C     -4.536465   -0.159098    0.479659
C     -1.471845   -2.027597    1.187846
C     -2.856814   -1.513071    1.500903
C      4.042909   -0.272416    0.507767
C     -2.646667    1.418832   -0.758570
C     -4.953680    0.882534   -0.317282
C     -0.322286    1.929930   -1.179882
C     -2.263667    0.352998    0.057427
C      0.064844    0.882547   -0.378113
C     -3.990621    1.658051   -0.926271
C     -0.926941    0.103876    0.233234
C     -6.382213    1.158989   -0.512599
F      0.625900    2.690948   -1.777138
N      7.235442   -0.695417   -1.118972
N      5.917447   -0.687059   -1.094065
N      1.427096    0.560197   -0.145555
N     -3.202581   -0.401105    0.649607
N      5.443417   -0.379732    0.098430
O     -4.327124    2.617673   -1.661070
O     -7.232600    0.439049    0.052240
O     -6.814058    2.201382   -1.309981
O     -0.552565   -0.963197    1.050345
H     -3.411036   -3.621846    1.372340
H     -4.693787   -2.462438    2.004727
H     -4.310596   -2.462505    0.265789
H      2.636179   -1.929224    0.266879
H      3.716796   -1.692965   -1.117331
H      3.672753    1.621233   -0.448025
H      4.223748    1.693303    1.312479
H      8.663620   -0.285975    0.481615
H      1.284172   -1.097035   -1.372896
H      2.430499    0.127136   -1.968562
H      1.821926    2.192155    1.177563
H      2.081597    0.529504    1.879760
H      6.478459    0.088091    1.923820
H     -1.983167    3.000258   -1.984073
H     -5.251243   -0.795261    0.978406
H     -1.102536   -2.735296    1.939819
H     -1.505350   -2.567590    0.222128
H     -2.846577   -1.229102    2.584629
H      3.968477   -0.657398    1.567116
H     -7.729116    2.651076   -1.194872
