51

C      5.040184    0.339352    1.085828
C      3.723045    0.452757    1.805913
C      5.072527    1.434739    0.021575
C     -5.045519    0.514487    2.066585
C      2.537351    0.222652    0.877321
C      3.832306    1.406527   -0.833959
C     -3.784305   -0.026829    2.070213
C     -5.607753    0.889340    0.876458
C     -2.811988   -0.041982   -1.521396
C     -1.400112    0.453473   -1.232636
C      1.860334    0.144892   -1.538814
C     -1.694898   -2.209718    0.512672
C      0.965590   -1.042756   -1.467614
C     -0.360245   -2.429895   -0.068638
C      2.977401    0.192862   -0.551193
C     -3.085316   -0.196147    0.900550
C     -1.728238   -0.775598    0.901406
C     -3.632846    0.173131   -0.309107
C     -0.761508   -0.138580   -0.042768
C     -4.889947    0.712716   -0.305209
N      0.252216   -1.126960   -0.236552
O     -5.453907    1.090161   -1.505710
H      5.835071    0.561203    1.817853
H      5.245548   -0.661098    0.673611
H      3.698073    1.472889    2.248485
H      3.703021   -0.253532    2.656604
H      6.016819    1.340651   -0.566930
H      5.180220    2.403289    0.574850
H     -5.604771    0.650875    3.001623
H      1.882671    1.109053    1.027402
H      2.105544   -0.734887    1.154383
H      4.184851    1.432976   -1.888653
H      3.250213    2.326677   -0.654190
H     -3.355618   -0.314916    3.011699
H     -6.598861    1.316765    0.859295
H     -2.864072   -1.024802   -1.964620
H     -3.186291    0.673472   -2.318362
H     -0.810310    0.441618   -2.164121
H     -1.566205    1.558028   -1.027712
H      1.302027    1.125385   -1.400419
H      2.314648    0.256608   -2.560167
H     -1.846794   -2.869235    1.430137
H     -2.524183   -2.524730   -0.162036
H      0.354691   -1.182565   -2.380415
H      1.650589   -1.947575   -1.481680
H      0.273500   -2.924028    0.738598
H     -0.313170   -3.066046   -0.978149
H      3.682233   -0.682990   -0.686821
H     -1.337776   -0.721452    1.954961
H     -0.297860    0.706012    0.538016
H     -6.378181    1.493731   -1.515904
