120

C     -1.592177   -1.797855    2.831173
C     -1.269709   -1.807090    1.325571
C     -4.148471   -1.219938   -3.063595
C     -4.312891   -1.165136   -1.719382
C     -2.908523   -0.951855   -3.617622
C      1.310893    3.014082   -2.723930
C      1.888062    4.061580   -2.069090
C     -3.237744   -0.826903   -0.876730
C     -1.843384   -0.621637   -2.769845
C      1.108275    1.822215   -2.107059
C      2.270606    3.917528   -0.759912
C      3.425792   -0.832143    3.431063
C      3.341187    0.514982    3.063682
C     -1.240381   -0.395912    0.896976
C      2.113407   -1.350235    1.476163
C      2.914318   -3.150699    2.880405
C      0.508573   -0.568428   -0.870869
C      2.797105   -1.737230    2.609083
C     -1.977458   -0.548321   -1.410277
C      1.501128    1.663364   -0.758870
C      2.017557   -0.001469    1.090246
C      2.068670    2.715357   -0.132898
C      2.662635    0.856633    1.945492
C     -0.894164   -0.156186   -0.544188
N      3.007261   -4.329920    3.110455
N     -0.957371    1.365262   -0.561758
N      1.462283    0.339162   -0.161829
S      2.558482    2.628332    1.567752
C     -4.156138    2.060178   -1.449119
C     -3.149294    0.876237   -1.424981
C     -3.467016   -2.724219    1.588164
C     -2.888859   -1.696657    2.306739
C     -3.167317   -2.770444    0.254073
C      1.571318    1.325350   -3.336362
C      2.665328    0.651608   -3.768280
C     -2.038332   -0.751308    1.730042
C     -2.319795   -1.871029   -0.300174
C      1.180018    1.092314   -2.067189
C      3.356831   -0.221036   -2.975653
C      4.399168   -0.433156    3.029519
C      4.516523   -0.999573    1.826987
C     -2.012093    1.289823   -0.464910
C      2.111627    0.351373    2.565228
C      3.408372    0.775467    4.725206
C      0.143212    0.893503    0.460568
C      3.190416    0.255679    3.482915
C     -1.736620   -0.848321    0.406295
C      1.813552    0.212358   -1.172424
C      2.238596   -0.236930    1.271760
C      2.920872   -0.416202   -1.722706
C      3.439121   -0.878420    1.021456
C     -0.930750    0.210900   -0.329712
N      3.605793    1.247308    5.872942
N     -0.541777   -0.450473   -1.514538
N      1.441934    0.292488    0.210289
S      3.635967   -1.666978   -0.618006
C      2.344654    0.188141   -0.565792
C      2.047606   -1.148732   -0.493031
C      1.393979    1.144675   -0.315121
C      0.787186   -1.500744   -0.166178
C      0.074368    0.794972    0.027118
C     -0.212482   -0.528797    0.097318
C     -0.855425    1.860226    0.271245
C     -1.530678   -1.016289    0.441005
O     -0.392084    3.078918    0.156215
O     -2.179938    1.821138    0.613029
O     -2.531125   -0.345012    0.707833
O     -1.751282   -2.425252    0.490937
H     -2.198853   -0.881045    3.010875
H     -0.630065   -1.703422    3.351052
H     -2.179766   -2.698168    3.123687
H     -2.123956   -2.393412    0.814588
H     -0.394279   -2.375726    1.097476
H     -4.958203   -1.471002   -3.769770
H     -5.292907   -1.400185   -1.303199
H     -2.688248   -0.955411   -4.667586
H      1.023956    3.196179   -3.768091
H      2.066633    5.049613   -2.546785
H     -3.505364   -0.791349    0.152009
H     -0.881196   -0.406454   -3.176882
H      0.684944    1.040404   -2.671833
H      2.734764    4.743891   -0.224932
H      3.965236   -1.095978    4.324952
H      3.844532    1.262976    3.720832
H     -0.463246    0.182757    1.539101
H     -2.164582    0.138558    1.152483
H      1.712220   -2.124454    0.878657
H      0.633441   -1.576302   -0.435170
H      0.826792   -0.620542   -1.870320
H     -0.932808    1.738829    0.393434
H     -1.653005    1.702704   -1.204789
H     -3.491501    2.955515   -1.558029
H     -4.830255    1.972861   -2.317210
H     -4.651545    2.146782   -0.512141
H     -3.663667    0.021735   -1.097589
H     -2.757044    0.853708   -2.458190
H     -4.150515   -3.440831    2.039595
H     -3.171791   -1.644781    3.386775
H     -3.626275   -3.524845   -0.365161
H      1.014458    2.060622   -3.920471
H      2.940353    0.771296   -4.854484
H     -1.665895    0.071981    2.338503
H     -2.124816   -1.951639   -1.384956
H      0.301239    1.686974   -1.743085
H      4.260924   -0.722041   -3.392055
H      5.248690   -0.457377    3.696946
H      5.454027   -1.514512    1.520566
H     -2.501384    1.333389    0.590326
H     -1.657607    2.283042   -0.724018
H      1.272650    0.846395    2.916047
H      0.112545    1.976676    0.407827
H     -0.143399    0.598980    1.521263
H     -0.178080   -1.433213   -1.368017
H     -1.221769   -0.460555   -2.330570
H      3.353228    0.491232   -0.827272
H      2.834520   -1.882040   -0.700328
H      1.633069    2.201191   -0.373756
H      0.500423   -2.545262   -0.095112
H     -2.814585    2.567231    0.341218
H     -2.701433   -2.755596    0.390671
