33

C      3.257514    1.179581    0.077554
C     -3.317798    0.615481    0.997150
C      0.448827   -1.468270   -1.607218
C      0.135269   -1.840844    0.790298
C      2.342513   -0.009007    0.045707
C     -0.990350    1.239814    1.298816
C      0.453597    1.240571    1.053355
C     -1.872046   -0.019108   -1.821705
C     -1.865807    0.506976    0.627972
C      0.889316    0.386386   -0.087239
C      0.020723   -0.824729   -0.294673
C     -1.395149   -0.375300   -0.440224
O     -2.285770   -1.196183   -1.124361
H      4.304515    0.780863   -0.018650
H      3.237850    1.690566    1.079940
H      3.094737    1.887203   -0.747885
H     -3.802058   -0.375126    0.888468
H     -3.747505    1.384283    0.320604
H     -3.393045    0.978022    2.032304
H      1.265491   -2.199634   -1.393772
H     -0.427846   -1.979796   -2.052233
H      0.810207   -0.650312   -2.273770
H      1.097382   -2.410777    0.762488
H     -0.054592   -1.395573    1.787369
H     -0.660997   -2.598451    0.633163
H      2.536703   -0.606068    0.954603
H      2.639908   -0.638562   -0.818264
H     -1.369373    1.898767    2.100774
H      0.741604    2.305547    0.810107
H      0.963291    0.970457    2.012514
H     -1.138372   -0.139283   -2.621279
H     -2.734139    0.667960   -1.953575
H      0.815400    0.994549   -1.018339
