55

C      5.889922    2.726131   -0.366811
C     -6.762984    1.998304    1.104158
C     -4.371184    1.709060    1.360022
C      6.847268    2.013896    0.513952
C      7.072455    0.574564    0.299432
C      5.920720   -0.330803    0.515743
C      4.762820   -0.041438   -0.369429
C      3.674360   -1.090548   -0.091967
C     -4.534273    0.228743   -1.453046
C     -3.279654   -0.283196   -0.801363
C     -5.642375    0.643079   -0.577571
C     -3.633523   -1.523918   -0.034557
C      2.500750   -0.787689   -0.997444
C     -0.800273   -2.742906   -1.185508
C     -5.442791    1.801311    0.333597
C     -2.532397   -2.171067    0.699513
C     -1.342991   -2.746651    0.200256
C      1.441537   -1.818039   -0.719941
O      1.624471   -2.719085    0.138875
O      0.234627   -1.809801   -1.397276
O     -2.426209   -3.613873    0.454405
H      4.975011    3.073681    0.147540
H      6.358008    3.720671   -0.709766
H      5.712601    2.195971   -1.320663
H     -7.575134    1.711446    0.411365
H     -6.840599    3.049248    1.444497
H     -6.749422    1.272796    1.933158
H     -4.713565    2.278420    2.294931
H     -3.465173    2.303086    1.060303
H     -4.138846    0.708406    1.736469
H      7.851626    2.536241    0.478295
H      6.491011    2.201581    1.577706
H      7.915344    0.175421    0.949384
H      7.425722    0.379539   -0.773832
H      6.259788   -1.380700    0.241607
H      5.602249   -0.343940    1.601012
H      4.245142    0.914862   -0.107045
H      5.046578   -0.139821   -1.419970
H      3.399589   -1.037697    0.969617
H      4.066240   -2.108186   -0.289851
H     -4.297944    1.098435   -2.147953
H     -4.949195   -0.545739   -2.167613
H     -2.771543    0.458950   -0.175980
H     -2.552098   -0.557439   -1.594705
H     -6.526747    0.910362   -1.244518
H     -6.046467   -0.242849   -0.001461
H     -4.008783   -2.263090   -0.804585
H     -4.475457   -1.317581    0.674057
H      2.778036   -0.741746   -2.051280
H      2.139237    0.227900   -0.707583
H     -0.421467   -3.786656   -1.466735
H     -1.604118   -2.563109   -1.910382
H     -5.260551    2.735381   -0.255945
H     -2.546760   -1.971180    1.842008
H     -0.522592   -2.968739    0.962159
