33

C      3.165504   -1.266440   -0.680872
C     -2.927452   -0.943595    1.551619
C      0.242194    1.822177    0.721153
C      0.089261    1.468670   -1.679367
C      2.212523   -0.135871   -0.807255
C     -0.462251   -1.030665    1.700449
C      0.924052   -0.699375    1.270559
C     -2.313817   -0.006075   -1.259552
C     -1.552109   -0.586754    1.087047
C      0.862565   -0.400752   -0.206141
C     -0.069772    0.781005   -0.362418
C     -1.460410    0.295040   -0.103076
O     -2.535542    1.135904   -0.380835
H      3.793149   -1.339760   -1.596462
H      3.885363   -1.053752    0.152628
H      2.686990   -2.257257   -0.557630
H     -3.558582   -0.064784    1.729061
H     -2.929006   -1.598557    2.421042
H     -3.396179   -1.515382    0.699604
H     -0.184354    1.546510    1.689859
H     -0.276497    2.764346    0.387600
H      1.317081    2.058865    0.737708
H      0.022732    0.736486   -2.511107
H      1.056701    2.012021   -1.699630
H     -0.698401    2.249820   -1.746698
H      2.677708    0.773352   -0.382542
H      2.057633    0.071875   -1.886429
H     -0.655306   -1.676793    2.570714
H      1.352217    0.143290    1.851103
H      1.538994   -1.612750    1.486701
H     -2.051548    0.268442   -2.295423
H     -3.197303   -0.676779   -1.193933
H      0.383864   -1.262461   -0.707478
