62

C     -5.775334    1.471289   -1.803497
C     -6.420666    2.444334    0.409796
C     -7.695880    0.609802   -0.568094
C     -4.115076   -1.882034    1.560478
C      8.612168    3.518648   -1.480890
C      5.107149    1.819757    0.209620
C      5.099671    0.207144   -1.520051
C      0.279331   -4.262286    2.075232
C      6.246000    2.399457   -0.309786
C      6.237852    0.779983   -2.046190
C     -0.094972   -3.092702    1.447211
C     -2.013907   -0.555938    1.433966
C     -1.277464   -1.117021    0.251334
C      2.553294   -3.663542    1.763335
C      4.507154    0.704563   -0.389079
C      1.609451   -4.556236    2.237837
C      6.830722    1.888811   -1.447206
C      0.846655   -2.198013    0.971313
C      2.179143   -2.493761    1.135221
C      2.151513    0.279021   -0.768137
C      3.298321    0.118418    0.194162
C      0.836751    0.081238   -0.115676
C     -4.171480    0.331858    0.496233
C     -6.286908    1.171092   -0.407412
Cl     2.063445   -6.044086    3.036504
N     -3.429068   -0.683841    1.155845
N      0.165408   -1.076109    0.367413
O      2.353300   -0.657499   -1.793593
O      0.130715    1.145917    0.067839
O     -3.633402    1.414733    0.110469
O      7.963685    2.399764   -2.034779
O     -5.526171    0.189921    0.240210
S      3.601428   -1.571938    0.655475
H     -5.706946    2.558230   -2.005592
H     -6.439363    1.034316   -2.592510
H     -4.792201    0.973933   -1.932108
H     -6.743918    3.260291   -0.299573
H     -7.127973    2.338782    1.236691
H     -5.426693    2.752980    0.786422
H     -8.264663    1.118235   -1.350316
H     -7.556103   -0.467202   -0.873288
H     -8.226533    0.573954    0.412631
H     -4.407888   -1.735669    2.641066
H     -5.074657   -2.038340    1.009772
H     -3.521199   -2.795578    1.422310
H      9.449016    3.808790   -2.154534
H      7.902821    4.329166   -1.291767
H      9.113450    3.152947   -0.539721
H      4.693061    2.269130    1.109638
H      4.677145   -0.652691   -2.021403
H     -0.471910   -4.972539    2.452810
H      6.713815    3.264687    0.152484
H      6.657825    0.345680   -2.935797
H     -1.123510   -2.883504    1.335818
H     -1.852865    0.570566    1.480521
H     -1.699518   -0.889760    2.418277
H     -1.706142   -1.985129   -0.238894
H     -1.512889   -0.324031   -0.548346
H      3.590701   -3.877521    1.881983
H      2.185678    1.310217   -1.149273
H      3.012533    0.689379    1.114772
H      1.426095   -0.850062   -2.142725
