36

C     -2.983330   -1.252512    0.397349
C     -3.288519    1.143365    0.002301
C      1.290153   -0.373297    0.728219
C      0.419471   -0.594297   -1.489435
C     -0.139651   -0.723107    1.059932
C     -0.768053    0.278332   -1.144734
C      2.916127    0.017926   -1.058614
C     -2.440985    0.099406    0.713965
C      1.573302   -0.308181   -0.567666
C     -0.995123    0.283114    0.325427
O      3.566424    1.544797    1.248628
O      4.166453   -0.974334    1.062858
O      5.424124    0.585616   -0.282738
S      4.044729    0.290831    0.265128
N     -0.015367   -0.006123    0.271263
H     -3.178949   -1.372300   -0.689785
H     -3.973898   -1.343857    0.893350
H     -2.345408   -2.045249    0.787379
H     -2.829722    2.124949    0.228439
H     -3.235977    0.954852   -1.072018
H     -4.342524    1.071098    0.356778
H      2.019637   -0.190495    1.489422
H      0.781981   -0.400791   -2.521513
H      0.145951   -1.646757   -1.328149
H     -0.309708   -0.664555    2.132481
H     -0.332487   -1.744028    0.655492
H     -0.538017    1.304879   -1.536707
H     -1.624396   -0.107300   -1.732935
H      2.810867    0.940326   -1.700027
H      3.248701   -0.773749   -1.729229
H     -2.571976    0.287181    1.798836
H     -0.691414    1.290217    0.716499
H      4.182216    2.297921    1.157853
H     -0.603060   -0.787712   -0.093904
H     -0.342681    0.923678   -0.090485
H      0.961109   -0.129842   -0.086873
