60

C     -5.331102    1.462299    1.334883
C     -6.370371    0.411130   -0.530370
C      7.639855    1.889030   -0.416347
C      3.662426    0.562080   -0.666829
C      3.611438    0.189910    1.649459
C     -2.383284   -4.018529   -0.452660
C      4.967477    0.995628   -0.574576
C      4.914904    0.621280    1.751545
C     -2.411395   -2.671797   -0.092035
C     -4.024779    0.087103   -0.142496
C     -2.983280   -0.297952    0.835568
C     -0.104371   -3.757868   -1.022352
C      1.498409    2.825915   -1.154894
C      2.935408    0.145398    0.427504
C     -1.215103   -4.557679   -0.920768
C      5.615084    1.031622    0.640322
C     -1.313752   -1.841074   -0.181788
C     -0.162360   -2.409235   -0.653067
C      0.636190    0.855462    0.048435
C      1.528108   -0.320235    0.350805
C     -0.786829    0.598003    0.174768
Cl    -1.162287   -6.262883   -1.381958
N     -5.335072    0.293380    0.481381
N     -1.672165   -0.518426    0.265670
O      1.657256    3.395798   -0.059020
O     -1.464614    1.690400    0.219401
O      6.945919    1.473283    0.737617
O      0.987486    1.549478   -1.131095
S      1.416395   -1.606221   -0.887340
C     -0.713410   -0.069957   -0.051616
C      0.704325   -0.146918    0.279820
O     -1.684220    0.225264    0.891585
O     -1.093540   -0.275222   -1.230461
O      1.645170   -0.445016   -0.692208
O      1.086965    0.059462    1.465364
H     -4.649236    2.205714    0.878021
H     -6.360054    1.805243    1.435649
H     -4.953508    1.163538    2.323692
H     -5.974348    0.828757   -1.468259
H     -6.742481   -0.609440   -0.768390
H     -7.223764    0.976458   -0.113606
H      7.154971    2.835670   -0.746656
H      8.705468    2.050452   -0.167179
H      7.529132    1.169017   -1.233825
H      3.202860    0.550887   -1.645010
H      3.091364   -0.123573    2.528486
H     -3.252548   -4.637119   -0.371210
H      5.508484    1.317821   -1.468493
H      5.394488    0.637284    2.718621
H     -3.327187   -2.289005    0.264931
H     -4.215736   -0.542389   -1.001471
H     -3.755869    1.121746   -0.527679
H     -2.857482    0.662343    1.455797
H     -3.267433   -0.957824    1.670493
H      0.844270   -4.145405   -1.388866
H      1.726183    3.244089   -2.127495
H      0.888338    1.589542    0.875738
H      1.238502   -0.669109    1.364190
H     -2.547073    0.723694    0.667791
H      2.601784   -0.071307   -0.609183
