67

C      1.718207    3.918205   -1.021072
C     -5.801939    0.378738    2.023625
C     -6.426327   -1.715046    0.945085
C     -7.170966    0.410209   -0.033505
C     -3.337070   -1.213806   -3.360401
C      9.487767   -0.766925   -0.469868
C      5.085080    1.046929    0.062678
C      5.358696   -1.274135   -0.072351
C     -1.810955    0.200207    2.984920
C      6.462266    1.200137   -0.070656
C      6.724593   -1.142233   -0.205484
C     -1.545678   -0.200693    1.679630
C     -2.199665   -0.092093   -1.461191
C     -1.384688   -1.148885   -0.746873
C      0.529879    0.561283    3.358415
C      2.112785    2.547173   -1.434437
C      4.505016   -0.201567    0.064141
C     -0.770809    0.575617    3.806507
C      7.274022    0.114973   -0.203488
C     -0.259381   -0.228719    1.193830
C      0.786703    0.156982    2.045334
C      2.240895    0.135069   -0.919506
C      3.074253   -0.434675    0.197173
C      1.008656   -0.678736   -0.984799
C     -4.601599   -0.704861   -1.300076
C     -6.031649   -0.277575    0.657696
Cl    -1.077774    1.090280    5.471616
N     -3.394621   -0.665074   -2.025985
N     -0.170981   -0.663735   -0.156353
O      2.655513    2.287377   -2.539633
O      0.919447   -1.550809   -1.902080
O     -5.622485   -1.242793   -1.856561
O      8.639331    0.336683   -0.332450
O      1.892211    1.451672   -0.588879
O     -4.822242   -0.224953   -0.038351
S      2.523489    0.242875    1.776300
H      2.137652    4.643084   -1.731155
H      0.623277    3.940875   -0.957617
H      2.145478    4.185988   -0.017177
H     -5.217532   -0.358471    2.611291
H     -5.272618    1.343250    1.885168
H     -6.789527    0.571634    2.521823
H     -7.255259   -1.776800    1.659503
H     -5.493177   -2.207045    1.345610
H     -6.691262   -2.209775   -0.012859
H     -7.849697   -0.347990   -0.490609
H     -6.866298    1.195197   -0.733061
H     -7.808227    0.917302    0.749331
H     -4.327643   -1.302907   -3.836941
H     -2.818797   -2.203877   -3.293492
H     -2.732231   -0.561874   -4.049933
H      9.080831   -1.455230   -1.234526
H      9.653562   -1.282746    0.514272
H     10.457272   -0.394842   -0.865013
H      4.424821    1.892043    0.170368
H      4.946093   -2.280174   -0.076706
H     -2.810435    0.233275    3.396569
H      6.878500    2.200774   -0.066921
H      7.350186   -2.019067   -0.309700
H     -2.348907   -0.496122    1.035014
H     -1.606919    0.302778   -2.351149
H     -2.370970    0.829667   -0.871164
H     -1.946303   -1.900732   -0.202150
H     -1.009926   -1.782742   -1.636245
H      1.362248    0.855709    3.997709
H      2.714971    0.049347   -1.917777
H      2.870855   -1.540647    0.224584
