67

C     -3.356528   -1.159300   -3.854676
C      6.204001    1.651180   -0.607624
C      7.301185    0.106697    0.952248
C      6.752644   -0.613404   -1.313638
C      2.217363    0.257340    2.604028
C     -9.162673   -1.113595    1.463688
C     -4.856993    0.276438   -0.377654
C     -4.912866   -0.869404    1.694593
C      1.876449    2.700054   -0.921009
C     -6.244937    0.177902   -0.418960
C     -6.287492   -0.959201    1.639620
C      1.659781    1.331543   -0.763130
C      2.551350   -1.493638    0.808787
C      1.746101   -1.285281   -0.425543
C     -0.311515    3.134920   -0.219922
C     -3.076114   -1.499483   -2.438815
C     -4.167920   -0.251965    0.691263
C      0.886544    3.611465   -0.648673
C     -6.974171   -0.434335    0.577313
C      0.466105    0.843906   -0.335506
C     -0.537222    1.764929   -0.058901
C     -2.127046   -1.129677   -0.259589
C     -2.681794   -0.167632    0.768370
C     -0.666076   -1.374511    0.003683
C      4.231713    0.233716    1.238994
C      6.276156    0.224855   -0.132864
Cl     1.113574    5.337918   -0.832620
N      2.981569   -0.359738    1.540047
N      0.501442   -0.592444   -0.256047
O     -3.551623   -2.577651   -1.997086
O     -0.375490   -2.486710    0.567002
O      4.672719    1.242364    1.850623
O     -8.374426   -0.497813    0.470373
O     -2.328479   -0.703531   -1.588832
O      5.016857   -0.288111    0.246560
S     -2.177313    1.512205    0.513796
H     -2.878351   -0.236877   -4.185899
H     -3.014754   -2.035700   -4.463373
H     -4.473409   -1.138409   -3.987883
H      6.026452    2.360816    0.231841
H      7.212975    1.908551   -1.006279
H      5.489827    1.788137   -1.438891
H      8.261223   -0.287752    0.550460
H      6.967455   -0.630856    1.716345
H      7.541097    1.081966    1.418285
H      5.898385   -0.666309   -2.021604
H      6.976787   -1.652053   -1.006387
H      7.600902   -0.119507   -1.835208
H      1.342769   -0.350963    2.906098
H      2.833466    0.378137    3.531242
H      1.914768    1.304185    2.327627
H     -9.074595   -0.458378    2.377280
H    -10.202503   -1.141507    1.100335
H     -8.778149   -2.123732    1.699789
H     -4.357542    0.772664   -1.195700
H     -4.337312   -1.272087    2.517335
H      2.831782    3.069033   -1.262086
H     -6.779999    0.598462   -1.267749
H     -6.837289   -1.442016    2.429390
H      2.464663    0.699240   -0.986516
H      2.055415   -2.183114    1.541664
H      3.466694   -2.077088    0.489189
H      2.293952   -1.117251   -1.364632
H      1.412491   -2.376008   -0.649219
H     -1.118496    3.804978    0.006723
H     -2.639594   -2.092020   -0.106318
H     -2.383986   -0.593934    1.754242
