68

C     -4.508349    1.913575    1.927493
C     -6.567767   -0.713513    0.248666
C      8.618214   -0.845859    1.243594
C     -4.748827    0.447484    2.125835
C     -5.188745   -0.146525   -0.137360
C      4.207894    1.027212    0.472585
C      4.416596   -1.316713    0.136863
C     -1.843305    1.591458   -3.224955
C      5.536361    1.154392    0.819220
C      5.747594   -1.171556    0.487537
C     -1.882195    0.726494   -2.157852
C     -2.925005   -0.089912    0.728527
C     -2.387045   -1.030558   -0.277306
C      0.480420    1.145090   -3.503458
C      3.621248   -0.196221    0.126813
C     -0.653211    1.815612   -3.918894
C      6.336739    0.025933    0.829636
C     -0.748731    0.066947   -1.752867
C      0.439218    0.290902   -2.446749
C      1.373678   -1.123438    0.580312
C      2.214133   -0.234190   -0.240446
C      0.011980   -1.395600    0.168510
Cl    -0.583926    2.914364   -5.272668
N     -4.322323   -0.380286    0.998918
N     -0.993346   -0.776354   -0.623517
O      1.978616   -2.358450    0.899947
O     -0.430507   -2.510513    0.649574
O      7.663015    0.172984    1.179282
S      1.997987   -0.477316   -2.048756
C     -0.417909   -0.720715   -0.248045
C      0.424856    0.256208    0.073978
C     -1.830282   -0.672244    0.111580
C      1.827911    0.223065   -0.275267
O     -2.551028   -1.642485   -0.235715
O     -2.406124    0.362553    0.799717
O      2.312572   -0.730400   -0.898459
O      2.641366    1.268726    0.090345
H     -3.416710    2.112287    2.113057
H     -5.123676    2.447177    2.704739
H     -4.773245    2.257986    0.913654
H     -6.478937   -1.710191    0.723685
H     -7.133320   -0.006045    0.867190
H     -7.171586   -0.860508   -0.692244
H      8.408215   -1.695414    0.586293
H      9.603672   -0.405818    0.934317
H      8.748575   -1.135407    2.328321
H     -4.114444    0.116066    2.992143
H     -5.802828    0.204955    2.376485
H     -4.859974   -0.770475   -0.986439
H     -5.345878    0.896462   -0.399633
H      3.580624    1.933240    0.465721
H      4.022559   -2.313492   -0.131425
H     -2.700599    2.149100   -3.600096
H      5.982109    2.115825    1.085333
H      6.382113   -2.051692    0.497482
H     -2.802857    0.562473   -1.647480
H     -2.426203   -0.321334    1.734425
H     -2.698710    0.979458    0.607768
H     -2.311471   -2.029544    0.280125
H     -2.999469   -1.330307   -1.117881
H      1.402505    1.319754   -4.036519
H      1.288577   -0.605611    1.598247
H      1.796401    0.811088   -0.076044
H      2.084144   -2.507221    1.860294
H      0.008096   -1.550472   -0.791386
H     -0.006140    1.091656    0.621536
H     -3.421271    0.532307    0.817317
H      3.417951    1.581801   -0.510405
