53

C     -5.634997    3.258974    0.284981
C     -5.225875    2.105181   -1.961705
C      4.565336    1.908465    1.309935
C      6.788150    1.384827    0.179005
C     -3.498437   -1.925910   -1.320991
C     -4.112298   -1.148729    1.033196
C      1.886000   -1.711213    1.589788
C      4.213164   -2.640139    0.946805
C     -3.952185    1.527062    0.073012
C      4.789333   -0.016210   -0.183246
C     -4.893649    2.257614   -0.521424
C      5.358738    1.031727    0.398003
C     -3.209128    0.518272   -0.750912
C      3.364693   -0.379910    0.026166
C     -2.046371   -0.133377   -0.108217
C      2.777589   -1.434183   -0.833335
C     -0.951402   -0.717909   -0.893681
C      1.364002   -1.353238   -1.264653
C     -3.360416   -0.886792   -0.249831
C      3.046203   -1.724771    0.609833
O     -1.219841   -1.192365   -2.027594
O      1.013099   -1.805110   -2.384399
O      0.369900   -0.789556   -0.480957
H     -5.794831    2.872558    1.329623
H     -6.654661    3.452570   -0.104769
H     -5.096084    4.227636    0.355227
H     -4.476641    2.593434   -2.628079
H     -5.299867    1.007833   -2.223531
H     -6.253357    2.492213   -2.110614
H      4.400113    1.320839    2.235597
H      3.611231    2.205316    0.823075
H      5.137692    2.808484    1.598422
H      6.882979    2.413428   -0.266643
H      7.273451    0.638916   -0.456628
H      7.257789    1.447893    1.180657
H     -3.509985   -1.522463   -2.346339
H     -4.503948   -2.402801   -1.172277
H     -2.769847   -2.755145   -1.240623
H     -5.127731   -1.499736    0.801190
H     -4.054448   -0.299826    1.713706
H     -3.590523   -2.006941    1.528538
H      2.259500   -2.142394    2.545130
H      1.525029   -0.678137    1.794924
H      1.013768   -2.277718    1.211167
H      4.677950   -2.374480    1.908529
H      3.851905   -3.679525    1.012690
H      4.932023   -2.589478    0.098299
H     -3.730778    1.659926    1.123847
H      5.398813   -0.624912   -0.835751
H     -3.195019    0.743436   -1.828436
H      2.676619    0.480281    0.246405
H     -1.742605    0.259815    0.871202
H      3.469853   -1.903735   -1.545027
