66

C     -1.058211    4.184044   -2.692461
C     -1.258042    5.818625   -0.982928
C     -2.398625   -5.413781   -2.833100
C     -5.014156    2.370318    2.211560
C     -5.104559    1.495284    3.258648
C     -3.981409    2.264236    1.297489
C     -4.159189    0.507076    3.396560
C     -1.817915   -2.312949    0.046995
C     -0.074022   -3.567835    1.020187
C      3.621446   -1.488194   -0.457472
C     -2.001054   -3.326055   -0.886506
C     -0.261291   -4.577100    0.084893
C      4.829251   -1.874967   -0.987679
C     -1.589354    3.587008   -0.428747
C     -2.239513    2.257414   -0.689608
C      4.863692   -0.138098    1.051631
C     -0.844850   -2.422683    1.018575
C      3.647450   -0.588494    0.599067
C     -1.232563   -4.469203   -0.886381
C      6.060709   -1.420952   -0.530688
C     -3.038319    1.263816    1.451475
C      6.085567   -0.527009    0.516306
C     -3.111081    0.364317    2.507558
C     -0.049195   -0.100154    1.380431
C     -0.662470   -1.316790    2.013355
C     -0.881270    0.513290    0.348516
C      2.416071   -0.120518    1.222115
N     -1.761481    4.533051   -1.488780
N     -2.065572    1.328562    0.409468
N      7.243434   -1.891744   -1.141285
N      7.244133    0.036352    1.088444
O     -0.512115    0.304920   -0.863160
O      2.451840    0.684909    2.177482
O      7.280667   -2.202514   -2.501187
O      8.302074   -2.092240   -0.536053
O      8.374060    0.224569    0.359867
O      7.223369    0.365784    2.292385
O     -1.428593   -5.478665   -1.831388
O      1.176620   -0.549273    0.779398
S     -2.108831   -0.990355    2.980916
H     -0.445549    5.058210   -3.025727
H     -0.430867    3.292196   -2.497745
H     -1.806652    4.007235   -3.494217
H     -0.481279    5.637956   -0.188640
H     -0.778558    6.419687   -1.761092
H     -2.057347    6.413654   -0.524360
H     -2.328745   -6.340866   -3.440118
H     -3.401850   -5.432738   -2.337426
H     -2.287961   -4.508540   -3.459960
H     -5.721135    3.164233    2.049861
H     -5.897103    1.564177    3.972526
H     -3.884780    2.926860    0.472685
H     -4.217824   -0.195168    4.225148
H     -2.452498   -1.425802    0.008641
H      0.689250   -3.640556    1.792046
H      2.665219   -1.838603   -0.810832
H     -2.765914   -3.252838   -1.659473
H      0.377875   -5.446100    0.144290
H      4.848913   -2.584738   -1.824364
H     -1.826484    3.969335    0.574907
H     -0.455772    3.443859   -0.373020
H     -1.578638    1.816084   -1.517657
H     -3.200413    2.255707   -1.187285
H      4.882329    0.566956    1.877551
H      0.246746    0.587180    2.191835
H      0.142332   -1.691380    2.719240
