21

C     -0.896666    1.446294    0.135363
C     -0.429713    0.427642   -2.138491
C      1.319408   -0.208540    1.181759
C      0.639589   -0.641305   -0.049684
C      2.644273   -0.050659    1.177813
C     -0.754729   -1.121164   -0.098318
C     -1.633176   -1.129363    1.083656
C     -0.387691    0.251355   -0.637477
Br     3.587948    0.510178    2.747303
Br     3.641188   -0.380052   -0.396799
Cl    -2.901154   -2.315049    1.221510
O     -1.485757   -0.319572    1.965355
H     -0.715539    2.357312   -0.469210
H     -0.399408    1.565101    1.109243
H     -1.973018    1.319132    0.289547
H     -0.864267   -0.491536   -2.593873
H      0.582363    0.547096   -2.549636
H     -1.091017    1.263557   -2.425244
H      0.789049   -0.004522    2.120833
H      1.329639   -1.112939   -0.812781
H     -1.001322   -1.912967   -0.860868
