24

C     -1.188270   -1.129454    0.964584
C     -2.142730   -0.986337   -1.381970
C      1.161071    0.364185    0.143912
C     -0.042019    0.403674   -0.709386
C      2.298770   -0.119489   -0.325404
C     -1.271077    1.147621   -0.288945
C     -1.322275    1.910169    0.964264
C     -1.275869   -0.336489   -0.297077
C      3.552826   -0.191418    0.476047
Cl     2.369806   -0.718411   -1.980921
Cl    -2.117188    3.489520    1.043766
F      4.008874   -1.482149    0.609501
F      3.297084    0.312870    1.737177
F      4.497334    0.570430   -0.188528
O     -0.831003    1.515301    2.012841
H     -0.117927   -1.322461    1.184151
H     -1.645271   -2.152309    0.846430
H     -1.678698   -0.654187    1.837253
H     -1.751684   -0.679713   -2.362661
H     -3.164291   -0.556363   -1.249114
H     -2.214945   -2.065655   -1.239195
H      1.184326    0.716663    1.170188
H      0.173723    0.302055   -1.813640
H     -1.780566    1.661947   -1.153272
