24

C     -1.825683   -0.765404    1.474938
C     -0.624051   -1.732151   -0.522729
C      1.126121    0.605168   -0.693271
C     -0.064189    0.637506    0.188031
C      2.343454    0.584692   -0.213816
C     -1.438026    0.735251   -0.526977
C     -1.484256    0.858891   -1.984676
C     -1.078442   -0.489354    0.167728
C      2.649207    0.588476    1.228382
Cl     3.710543    0.577721   -1.312868
Cl    -2.408280    2.118705   -2.806913
F      3.215451    1.810956    1.553075
F      1.654288    0.201878    2.058698
F      3.668638   -0.384109    1.397820
O     -0.879800    0.088105   -2.692559
H     -2.400778    0.104117    1.816228
H     -2.538370   -1.584470    1.272969
H     -1.129213   -1.045858    2.282307
H     -0.179049   -2.401986    0.267414
H     -1.410032   -2.304984   -1.016497
H      0.185795   -1.562066   -1.250705
H      1.049585    0.604034   -1.780462
H      0.001110    1.291424    1.097735
H     -2.144022    1.463458   -0.003853
