24

C     -2.433607   -0.149259    0.968608
C     -0.505334   -1.763052    0.796344
C      1.177228    0.602142    0.485619
C     -0.229703    0.716539    0.073317
C      2.169400    0.710309   -0.379419
C     -0.784997   -0.051030   -1.056475
C     -1.880494    0.495542   -1.877375
C     -1.107711   -0.453810    0.326850
C      3.578558    0.591978    0.055526
Cl     1.800978    1.000657   -2.069102
Cl    -3.062477    1.551059   -1.145316
F      3.653863    0.366909    1.409924
F      4.263269    1.757594   -0.241099
F      4.192853   -0.426954   -0.664085
O     -1.958898    0.209738   -3.069454
H     -3.234332   -0.509654    0.308595
H     -2.533094   -0.729909    1.929850
H     -2.552081    0.919141    1.243975
H     -1.327722   -2.524763    0.737260
H      0.310957   -2.120506    0.169052
H     -0.244062   -1.648982    1.866670
H      1.412384    0.424792    1.523061
H     -0.674601    1.735220    0.209846
H     -0.030377   -0.703702   -1.602171
