25

C     -0.422772   -1.948279   -0.785282
C     -1.753150    0.127457   -1.333427
C      1.434163   -0.384912    0.891231
C      0.215948    0.221774    0.339751
C      2.641507   -0.029294    0.476976
C     -1.070279   -0.261710    1.075498
C     -1.982873    0.804387    1.500329
C     -0.818579   -0.541549   -0.363508
C      2.883888    0.992194   -0.564368
Cl     4.017497   -0.836913    1.268337
F      3.450727    2.145623   -0.054480
F      1.813562    1.191638   -1.367214
F      3.900240    0.446485   -1.380478
O     -2.622916    0.687222    2.574731
O     -2.181330    1.960215    0.763171
H      0.455232   -2.308775   -0.194634
H     -1.276784   -2.652062   -0.741091
H     -0.075589   -1.891419   -1.840948
H     -1.720319   -0.339514   -2.340549
H     -1.626027    1.225160   -1.385459
H     -2.797259   -0.054335   -0.952554
H      1.361936   -1.149198    1.660828
H      0.225523    1.330407    0.160924
H     -0.967272   -1.159873    1.725949
H     -3.085072    2.425269    0.866267
