63

C      7.832725    0.032478   -0.469736
C      1.778420   -2.033750   -1.065955
C      1.618675   -0.124325   -2.508508
C     -5.347896    1.546945   -1.772760
C     -3.752575    2.716891   -0.329956
C      6.337094    0.411572   -0.288334
C      5.900982   -0.218801    0.970850
C      4.571613   -0.041086    1.481455
C      3.387249   -0.560065    0.779428
C     -4.988639   -1.901650    0.844081
C     -4.619346   -0.928940   -0.262292
C      2.953709    0.037756   -0.468686
C      0.162534   -0.053081    0.964420
C     -0.718549    0.191478   -1.219014
C     -3.656756   -0.414941    2.444507
C      0.390254   -0.079856   -0.383127
C     -4.819620   -1.276459    2.172780
C     -3.503920    0.636280    1.346080
C     -4.565687    0.483779    0.309324
C     -1.098426    0.220716    1.519906
C     -1.954717    0.460001   -0.666207
C     -2.158154    0.472352    0.698319
C      1.621984   -0.488608   -0.984167
C     -4.157388    1.377016   -0.860202
O     -5.659654   -1.477525    3.065049
O     -1.174371    0.219401    2.909470
O     -3.055087    0.739711   -1.476134
H      8.165159   -0.484313    0.460882
H      8.386296    0.968893   -0.584363
H      7.928620   -0.678254   -1.286245
H      1.036783   -2.396337   -1.795779
H      2.812545   -2.238790   -1.411373
H      1.532038   -2.425523   -0.081818
H      1.315595    0.920797   -2.581448
H      2.661205   -0.253668   -2.836087
H      0.942106   -0.844695   -3.024245
H     -5.562166    0.629495   -2.316934
H     -5.179149    2.439747   -2.416901
H     -6.193443    1.858125   -1.097255
H     -4.425834    3.000375    0.514650
H     -3.866853    3.508681   -1.137538
H     -2.708365    2.750042    0.023495
H      6.259557    1.532152   -0.281844
H      5.838666    0.019282   -1.172415
H      6.691518   -0.048603    1.794380
H      6.104097   -1.357814    0.790866
H      4.531420   -0.414270    2.580970
H      4.396831    1.109355    1.713505
H      2.638549   -0.966457    1.494166
H      3.743267   -1.679980    0.392473
H     -5.986644   -2.364286    0.711438
H     -4.237416   -2.760891    0.819324
H     -3.694815   -1.171209   -0.783655
H     -5.469688   -0.961826   -0.991488
H      2.888342    1.146080   -0.457086
H      3.710885   -0.182266   -1.284163
H      0.942225   -0.213485    1.661062
H     -0.560016    0.188990   -2.276972
H     -2.768908   -1.121693    2.403749
H     -3.717712    0.078469    3.417635
H     -3.539841    1.644081    1.772830
H     -5.545398    0.803436    0.655904
H     -0.393911    0.019072    3.498191
