80

C     -4.864084   -0.986513   -2.328161
C     -4.146618   -3.314568   -1.778427
C     -4.822954   -0.893560    0.834740
C     -3.427353   -2.817001    1.319987
C      0.373116    3.534301   -0.567183
C     -1.579757    3.428268   -2.038329
C     -2.020057    3.440516    1.462110
C     -3.798750    2.601166    0.003064
C      7.196373    2.050319    1.447936
C      6.165694    2.327384    0.592243
C      7.562386    0.745579    1.661931
C      5.494761    1.283938   -0.055952
C      6.890669   -0.276046    1.014767
C      2.106771   -2.795377    1.605888
C      2.291043   -3.341064    0.216655
C      5.173651   -1.147390   -0.504785
C     -0.496317   -2.122644    0.415596
C     -3.694779   -1.920754   -2.129350
C     -3.410250   -1.377488    0.820757
C     -0.530321    2.624871   -1.319669
C     -2.604352    2.216192    0.799734
C      5.844094   -0.029520    0.143366
C      0.691694   -1.296732   -0.016504
C      2.184416    0.441169    0.226702
C      0.812835   -0.015534    0.760081
C      3.024737   -0.829534    0.308931
C      2.007932   -1.929166    0.382685
O      2.120057    0.748225   -1.122919
O      3.843822   -1.027001   -0.766871
O     -1.216200   -2.414454   -0.735571
O     -0.138857    0.837261    0.871067
O     -1.943947    0.182774   -1.257638
Si    -2.538155   -1.278525   -0.774785
Si    -1.298624    1.286080   -0.202175
H     -5.726369   -1.311835   -1.679011
H     -5.253780   -1.040029   -3.375500
H     -4.628468    0.070229   -2.156296
H     -4.283866   -3.892972   -2.730027
H     -5.114985   -3.308450   -1.223422
H     -3.409790   -3.850901   -1.165898
H     -5.533750   -1.753415    0.654967
H     -5.066187   -0.598052    1.899857
H     -5.020616   -0.022434    0.206181
H     -2.547818   -3.373203    0.973694
H     -3.396666   -2.831432    2.436997
H     -4.384118   -3.291708    1.031687
H      0.441460    3.232973    0.494587
H      1.406504    3.412998   -1.005950
H      0.077549    4.581621   -0.733532
H     -1.103896    3.761841   -3.020330
H     -2.468140    2.866477   -2.343183
H     -1.797459    4.410185   -1.545175
H     -1.229250    3.089017    2.188136
H     -2.873534    3.865613    2.075543
H     -1.708268    4.238018    0.805650
H     -4.711609    2.628731    0.653791
H     -3.733678    3.608987   -0.454798
H     -3.937834    1.864879   -0.800529
H      7.749893    2.840231    1.977437
H      5.888373    3.352014    0.432737
H      8.386462    0.555304    2.348365
H      4.691877    1.547916   -0.722776
H      7.181121   -1.310173    1.184699
H      1.250872   -3.044209    2.229563
H      3.042338   -2.690365    2.236797
H      1.476628   -3.992541   -0.167835
H      3.289833   -3.697308   -0.020545
H      5.369384   -2.106496    0.028923
H      5.682726   -1.293755   -1.504559
H     -0.189473   -3.110794    0.823364
H     -1.035445   -1.547901    1.165497
H     -3.134531   -1.990918   -3.092532
H     -2.862167   -0.784334    1.611810
H      0.019970    2.085368   -2.160046
H     -2.896172    1.571111    1.696729
H      0.737759   -1.139758   -1.113642
H      2.574635    1.266944    0.828038
H      1.100769   -0.378683    1.809404
H      3.603639   -0.769580    1.272148
H      2.823399    0.345621   -1.661455
