39

C      4.584925   -0.768924    0.680515
C      3.903212    0.125919    1.456433
C      4.254423   -0.949508   -0.643385
C      2.866813    0.853320    0.884518
C      3.237462   -0.230770   -1.190422
C     -2.116726    2.098110   -0.358823
C     -1.889280    1.784236    1.076575
C     -3.584139   -0.691356    0.905267
C      1.425950    1.433092   -1.094494
C      2.508265    0.697331   -0.440476
C     -2.631199   -0.368470   -0.196966
C     -1.832651   -1.569734   -0.576153
C     -0.446665   -1.231510   -0.064970
C     -0.282273    0.260219   -0.146023
C     -1.696691    0.745484    0.074438
O     -2.936788   -1.129805    2.037197
O     -1.742429   -1.769889   -1.949261
O      0.530486   -1.945266   -0.715782
O      0.267306    0.716430   -1.310639
H      5.404324   -1.354695    1.103155
H      4.144598    0.284655    2.497649
H      4.797035   -1.662176   -1.262392
H      2.342920    1.557328    1.508330
H      2.970934   -0.364808   -2.225979
H     -1.438046    2.773529   -0.903173
H     -3.185593    2.238311   -0.635949
H     -0.964366    2.270607    1.505279
H     -2.703995    1.744675    1.802744
H     -4.292585    0.133308    1.122128
H     -4.223592   -1.541348    0.548138
H      1.811487    1.874822   -2.054925
H      1.208133    2.340542   -0.459635
H     -3.251968   -0.085405   -1.094911
H     -2.243618   -2.468087   -0.071878
H     -0.430150   -1.546475    1.018922
H      0.336939    0.562891    0.727496
H     -2.188382   -0.543477    2.307664
H     -2.634193   -1.872929   -2.372214
H      0.120117   -2.400176   -1.487998
