54

C      2.194595   -0.537767    1.832584
C      4.365533   -1.070017    0.833948
C      3.891279    1.230313    1.511332
C     -3.450240    0.877068    3.021866
C     -4.270276    1.790453    0.829152
C      4.022315   -0.093401   -1.991001
C      2.411054    2.210244   -0.947347
C     -2.116585   -1.228455   -2.774306
C     -1.086794   -2.311763   -2.457562
C      0.115736    0.262864   -1.286738
C     -0.957558   -0.482610   -0.581856
C     -2.161489    0.374747   -0.208055
C     -3.332555   -0.603166   -0.136392
C     -2.711615   -1.967508   -0.424287
C      3.266634   -0.018222    0.917748
C     -3.404600    0.774128    1.521597
C     -1.622745   -1.559527   -1.359659
O     -2.104801   -2.362978    0.775044
O      1.277487   -0.520484   -1.229602
O     -2.075324    0.865088    1.082005
O     -3.823612   -0.512936    1.152514
Si     2.655748    0.370590   -0.789691
H      1.179777   -0.481114    1.417676
H      2.380418   -1.600738    2.111736
H      2.198940    0.047488    2.786457
H      4.357656   -1.684815    1.745115
H      5.341972   -0.584758    0.629732
H      4.106323   -1.730055   -0.027066
H      4.006124    1.048285    2.606189
H      4.871554    1.447053    1.049487
H      3.169134    2.067380    1.387878
H     -2.649000    1.598965    3.318705
H     -4.454722    1.210070    3.322046
H     -3.211809   -0.116078    3.439886
H     -5.082280    1.279957    0.258068
H     -3.691147    2.396223    0.087554
H     -4.683909    2.458384    1.605195
H      4.939014    0.401010   -1.613858
H      4.216911   -1.175663   -1.987159
H      3.792001    0.312829   -2.992002
H      2.193202    2.483316   -1.997585
H      1.693390    2.618616   -0.224136
H      3.397141    2.678429   -0.699913
H     -3.146422   -1.547537   -3.049967
H     -1.764325   -0.278591   -3.222100
H     -1.471499   -3.337253   -2.643657
H     -0.069529   -2.079960   -2.810700
H     -0.127508    0.571132   -2.311386
H      0.319020    1.194207   -0.708076
H     -0.567093   -0.904029    0.353493
H     -2.352552    1.155342   -0.964284
H     -4.089586   -0.372389   -0.901143
H     -3.426512   -2.693714   -0.812313
H     -2.456871   -1.868652    1.554834
