79

C     -0.857114    3.285177    1.038617
C     -1.520293    3.962659   -1.263015
C     -4.709955    1.448984   -0.660816
C     -3.517462    1.865592   -2.828122
C     -3.749612   -1.031887    2.906917
C     -2.100895   -2.917565    3.197050
C     -3.869246   -2.654245    0.245490
C     -1.709996   -3.719679   -0.056547
C      6.079842    2.622843    1.637227
C      5.592217    2.785453    0.347710
C      6.291444    1.374828    2.174134
C      5.330796    1.612962   -0.368108
C      6.021553    0.235202    1.436874
C      1.897392   -2.743044   -1.603269
C      2.137114   -1.639733   -2.659373
C      5.232821   -0.843723   -0.667544
C      0.501400    0.753724   -1.389990
C     -1.838501    3.073278   -0.093000
C     -3.568153    1.084507   -1.538930
C     -2.330310   -1.507164    2.771153
C     -2.416476   -2.379800   -0.085772
C      5.529096    0.365242    0.133875
C      0.697641   -0.614631   -0.803919
C      2.269847   -0.600383    0.974125
C      0.824101   -0.432588    0.687990
C      2.998592   -0.728647   -0.369384
C      1.928667   -1.304894   -1.252584
F      2.717327    0.573586    1.594022
O      4.105122   -1.529988   -0.271997
O     -0.788964    0.902671   -1.747106
O      0.037281   -1.409457    1.266511
O     -2.113352    0.388907    0.750622
Si    -1.921185    1.263610   -0.593565
Si    -1.632026   -1.131296    1.058860
H     -1.174031    4.198711    1.605568
H     -0.840768    2.463992    1.758154
H      0.132410    3.535246    0.602866
H     -0.818800    3.518032   -1.982101
H     -1.038102    4.881534   -0.859274
H     -2.471271    4.301653   -1.733982
H     -5.498421    1.925581   -1.273129
H     -4.398790    2.080439    0.196189
H     -5.135650    0.527159   -0.214584
H     -4.075427    2.825300   -2.761115
H     -2.471638    1.999389   -3.152312
H     -4.016319    1.287861   -3.643618
H     -3.921512   -0.218016    2.160536
H     -3.898987   -0.518340    3.903193
H     -4.514261   -1.791650    2.760162
H     -3.086827   -3.450362    3.265742
H     -1.392573   -3.451982    2.557696
H     -1.726155   -2.946544    4.262755
H     -4.302361   -3.145076   -0.661297
H     -3.991949   -3.384769    1.053290
H     -4.426764   -1.719181    0.366490
H     -2.212295   -4.471501    0.551601
H     -1.692073   -4.127838   -1.104273
H     -0.685643   -3.563489    0.271335
H      6.297871    3.500254    2.230008
H      5.421643    3.769414   -0.084859
H      6.672780    1.288886    3.184141
H      4.956100    1.765395   -1.368138
H      6.180716   -0.775174    1.841272
H      0.875669   -3.202099   -1.580244
H      2.715596   -3.421719   -1.360013
H      3.110179   -1.668768   -3.164979
H      1.271583   -1.459453   -3.346764
H      6.110241   -1.519194   -0.537860
H      5.158448   -0.501453   -1.741732
H      1.130135    0.780702   -2.329074
H      0.919761    1.552845   -0.747329
H     -2.833156    3.381804    0.291541
H     -3.660950    0.015373   -1.818327
H     -1.718242   -0.843106    3.455908
H     -2.442639   -1.985130   -1.148249
H     -0.160483   -1.259905   -1.074140
H      2.503441   -1.441792    1.647643
H      0.412664    0.556497    1.019902
H      3.188139    0.299969   -0.734152
