61

C     -4.387437   -1.848840   -0.065867
C     -1.552325   -2.906221    1.665189
C      3.805717   -2.797994    0.855193
C      2.161799   -1.093196    1.469236
C      4.123682   -0.531090    0.003441
C      1.697907    5.651656    1.310205
C     -3.127052   -2.352455   -0.667500
C     -1.746420   -1.475551    1.137871
C      0.725554    2.182642   -1.131325
C     -1.897563   -1.481335   -0.345379
C     -0.339419    2.905192   -0.310365
C      0.116598    0.821118   -1.503865
C     -1.256708    0.922120   -0.971676
C     -2.158283   -0.200775   -1.004529
C     -1.045322    1.675964    0.308513
C      0.237545    3.751544    0.740156
C      1.560603   -1.116457   -1.556396
C      3.074653   -1.549522    0.342117
N     -2.446351   -0.504417   -2.421630
N      0.967898   -0.171574   -0.963314
O     -2.210027    2.039438    0.936980
O      0.000600    3.596737    1.971781
O      1.446521   -1.327936   -2.941269
O      1.083544    4.772876    0.385317
O      2.351851   -1.970300   -0.798840
Cl     0.690274    0.000000    0.000000
H     -4.321812   -1.545732    0.991648
H     -4.823332   -1.002729   -0.673064
H     -5.142048   -2.679313   -0.077779
H     -0.766918   -3.439075    1.087161
H     -1.127809   -2.775760    2.698416
H     -2.494849   -3.451480    1.729845
H      4.526643   -2.487571    1.638123
H      4.392870   -3.169181   -0.032331
H      3.079686   -3.559493    1.205694
H      1.721501   -0.112966    1.283257
H      2.794518   -0.978447    2.390928
H      1.456811   -1.919968    1.645347
H      5.147650   -0.869873    0.246980
H      4.022707   -0.235432   -1.057834
H      3.909304    0.402300    0.596327
H      1.373567    6.685125    1.001651
H      2.801699    5.649978    1.220848
H      1.349299    5.448711    2.325188
H     -3.232573   -2.259460   -1.788689
H     -2.920154   -3.414461   -0.482710
H     -2.536534   -1.008696    1.711102
H     -0.733269   -1.010753    1.344033
H      1.597474    2.074715   -0.465895
H      1.038994    2.755841   -2.001322
H     -1.053752   -2.070796   -0.769426
H     -1.051500    3.451683   -0.967918
H      0.063591    0.823788   -2.616396
H     -1.755940    1.715754   -1.641843
H     -3.164231    0.162072   -0.625097
H     -0.272723    1.262466    0.975399
H     -2.518582    0.389294   -2.938342
H     -1.591494   -1.018765   -2.754189
H     -2.152785    1.779074    1.901709
H      1.196424   -0.582476   -3.544864
H     -0.690274    0.000000    0.000000
