87

C     -3.093444   -2.820115   -0.867886
C     -4.331275   -3.259581    1.172156
C     -5.427857   -0.964841    2.817841
C     -6.349483   -0.683193    0.480981
C     -4.130908    1.514435   -3.408187
C     -1.976423    0.416326   -3.756664
C     -3.350568    3.981959   -1.421407
C     -3.336596    3.144626    0.841170
C     10.429529    0.398920   -0.721912
C      9.589614    0.159749   -1.777814
C      9.902406    0.788518    0.487258
C      8.236820    0.318523   -1.591549
C      8.552480    0.947728    0.676319
C      4.580782   -2.324127   -0.694292
C      1.569946   -0.743926    2.510920
C      1.349169   -2.138958    1.839079
C      3.296451   -1.894001   -0.503142
C     -1.289205   -0.543157    2.069182
C     -3.246574   -2.393546    0.576942
C     -5.289365   -0.354031    1.471017
C     -2.683987    1.542438   -3.041757
C     -2.643477    3.008351   -0.462130
C      7.690206    0.707470   -0.388093
C     -0.451472   -0.532803    0.853059
C      5.608837   -1.382404   -0.555403
C      1.199948    1.101796    0.117425
C     -0.328020    0.857205    0.228370
C      1.653052   -0.303768   -0.023414
C      6.283168    0.874541   -0.127562
C      4.000650    0.273357   -0.063228
C      0.973204   -0.905680    1.191012
F      1.500226    1.655093    1.373850
N      3.017781   -0.588092   -0.186221
N      5.292577   -0.119443   -0.246968
O      6.811144   -1.759920   -0.724284
O      5.947664    2.062415    0.247260
O      3.736807    1.478733    0.228148
O     -2.512075    0.088502    1.918768
O     -0.799987    0.837233   -1.054435
O     -3.560654    0.165256   -0.737391
Si    -3.541433   -0.574245    0.753208
Si    -2.463379    1.327688   -1.152553
H     -3.834537   -2.300251   -1.519799
H     -2.098463   -2.684949   -1.283993
H     -3.316166   -3.907770   -0.912403
H     -4.190377   -4.332063    0.831267
H     -4.263192   -3.333384    2.275801
H     -5.344877   -3.011763    0.872865
H     -5.928585   -0.238157    3.524354
H     -4.388513   -1.143842    3.222281
H     -6.061135   -1.857217    2.833498
H     -5.881136   -1.092688   -0.439216
H     -6.923614    0.215681    0.118458
H     -7.096828   -1.393135    0.893233
H     -4.803888    1.306570   -2.550286
H     -4.418850    2.501917   -3.806253
H     -4.330498    0.777226   -4.212184
H     -2.509656    0.270069   -4.722323
H     -2.023555   -0.533179   -3.187189
H     -0.945837    0.731417   -3.984168
H     -3.410866    4.943632   -0.873235
H     -2.723017    4.159054   -2.306187
H     -4.357830    3.574562   -1.659830
H     -3.459312    4.258902    1.006374
H     -2.786342    2.801869    1.723859
H     -4.397694    2.787875    0.793212
H     11.500542    0.287955   -0.817299
H     10.033119   -0.145139   -2.715472
H     10.599917    0.970701    1.306368
H      7.598416    0.136582   -2.443358
H      8.170431    1.258779    1.650505
H      4.848864   -3.339078   -0.944128
H      1.051829   -0.577995    3.452580
H      2.638156   -0.387000    2.531619
H      2.266802   -2.705149    1.737934
H      0.536998   -2.735142    2.346969
H      2.493412   -2.637695   -0.619534
H     -0.751421    0.069198    2.847074
H     -1.347501   -1.554117    2.482413
H     -2.311583   -2.679191    1.099584
H     -5.353474    0.767855    1.623127
H     -2.217698    2.478921   -3.344406
H     -1.620563    3.475111   -0.335854
H     -0.758903   -1.222672    0.049199
H      1.394127    1.775938   -0.710103
H     -0.782036    1.623818    0.864860
H      1.089055   -0.727086   -0.902269
