79

C     -3.519724   -2.322103    3.226253
C     -5.177074   -1.286761    1.623929
C     -3.201492   -3.654099    0.486039
C     -3.552680   -2.116337   -1.363455
C     -1.811173    3.264286   -2.598997
C     -3.590058    1.582421   -2.664796
C     -0.853793    3.946514    0.317358
C     -2.602969    2.949257    1.735043
C      7.583043   -0.145359    1.280469
C      7.275593   -1.377705    0.753256
C      6.990621    0.962139    0.750045
C      6.389185   -1.487490   -0.286614
C      6.105307    0.844660   -0.289743
C      2.963322   -0.758832    1.530834
C      2.854977   -2.028126    0.748370
C      4.830490   -0.474871   -1.955283
C      0.133799   -0.764045    1.524549
C     -3.845858   -1.211769    2.287419
C     -2.658370   -2.420975   -0.193519
C     -2.796254    2.508667   -1.757489
C     -1.375369    2.643172    0.884218
C      5.767872   -0.377147   -0.849906
C      0.724069   -0.669503    0.172421
C      1.650577    0.659713   -1.572804
C      0.533096    0.657611   -0.516397
C      2.827571    0.019893   -0.860822
C      2.230088   -0.769116    0.268198
F      1.915615    1.912373   -2.033874
O      3.541025   -0.796648   -1.678850
O     -1.109237   -1.032138    1.764153
O     -0.646789    0.669441   -1.220005
O     -3.014791    0.390482    0.156402
Si    -2.480232   -0.968965    0.975508
Si    -1.916079    1.465069   -0.444196
H     -2.446050   -2.575314    3.274281
H     -4.160756   -3.194090    2.986100
H     -3.879259   -2.000000    4.249997
H     -5.793956   -0.397424    1.902945
H     -5.673045   -2.230421    2.002747
H     -5.121352   -1.368210    0.527294
H     -3.053158   -4.480604   -0.271201
H     -2.602392   -3.979953    1.353717
H     -4.278704   -3.603020    0.634726
H     -3.785002   -1.027800   -1.422077
H     -2.997550   -2.343999   -2.313390
H     -4.506832   -2.717271   -1.343975
H     -2.242399    3.338071   -3.640219
H     -1.770464    4.331404   -2.252059
H     -0.816951    2.816470   -2.654930
H     -2.992829    0.670936   -2.920477
H     -4.514536    1.206532   -2.170593
H     -3.887894    2.077386   -3.593326
H     -1.663536    4.678687    0.119745
H     -0.198121    3.753159   -0.534217
H     -0.204207    4.443758    1.096491
H     -3.235870    3.728361    1.281635
H     -2.277015    3.243993    2.761550
H     -3.139212    1.980766    1.865321
H      8.291151   -0.115134    2.103261
H      7.738350   -2.281104    1.162143
H      7.214914    1.932133    1.144524
H      6.162515   -2.480275   -0.687102
H      5.639932    1.731366   -0.709456
H      2.513070   -0.644726    2.526609
H      4.010591   -0.331014    1.518030
H      2.162761   -2.795482    1.147593
H      3.715150   -2.459695    0.201001
H      4.837331    0.483932   -2.542890
H      5.253849   -1.227068   -2.683861
H      0.457382    0.172614    2.076608
H      0.759099   -1.555938    2.058550
H     -3.785090   -0.234707    2.867268
H     -1.653124   -2.703059   -0.586986
H     -3.486507    3.170527   -1.234456
H     -0.613424    2.251020    1.556550
H      0.396657   -1.478066   -0.512888
H      1.366307   -0.017197   -2.399632
H      0.674262    1.514429    0.138602
H      3.421602    0.902317   -0.478263
