43

C      4.339570    3.273730   -1.300440
C     -3.688571    3.532663   -0.497555
C      4.208021    2.485770   -2.425669
C      3.752763    2.839447   -0.130718
C     -2.580322    3.245489    0.253285
C     -4.312226    2.553867   -1.215589
C      3.494966    1.282788   -2.360932
C      3.039603    1.637373   -0.063788
C     -2.092823    1.932465    0.276061
C     -3.813871    1.251090   -1.182072
C      0.754192   -3.343553    1.900817
C      1.507970   -3.095783    0.845599
C     -1.655591   -3.588609    1.963390
C      2.914580    0.863482   -1.183461
C     -2.700579    0.927988   -0.436787
C     -0.512017   -2.579512    1.821670
C      0.869484   -2.136973   -0.093958
C     -0.534698   -2.047901    0.404858
C      2.187154   -0.400009   -1.190244
C     -2.213023   -0.443686   -0.429163
O     -1.612931   -4.268138    3.152872
O      2.083338   -1.097684   -2.230682
O     -2.743640   -1.373253   -1.065116
O      1.565974   -0.908062   -0.048985
O     -1.090529   -0.759409    0.324839
H      4.879168    4.212842   -1.291637
H     -4.032453    4.564697   -0.486199
H      4.669968    2.831704   -3.338338
H      3.863817    3.472484    0.754602
H     -2.079799    4.015946    0.825640
H     -5.181273    2.826222   -1.792157
H      3.408443    0.685674   -3.259436
H      2.591722    1.314961    0.847181
H     -1.220605    1.723225    0.871342
H     -4.363358    0.534037   -1.777052
H      1.014996   -4.005536    2.708818
H      2.503363   -3.528310    0.643948
H     -2.636623   -3.093105    1.770121
H     -1.495456   -4.335202    1.144366
H     -0.608056   -1.798389    2.584300
H      0.904017   -2.588557   -1.121524
H     -1.166048   -2.704326   -0.235320
H     -2.218617   -3.911944    3.845675
