63

C      4.921340   -1.529005    1.221109
C      4.330213    0.853484    1.680783
C      6.039168    0.262766    0.007435
C     -3.282488    4.061243    1.015568
C     -2.663273    3.535246   -1.278407
C      3.298233    1.259832   -1.718247
C      3.549223   -1.805701   -1.679520
C     -4.197760   -3.464113    1.464711
C     -0.679245   -2.093686   -0.238223
C     -1.226968   -1.270584   -1.347236
C     -3.274362   -2.459832    1.388965
C      0.948623    0.506871   -0.312768
C     -0.370980    0.441523    0.352986
C     -5.376363   -3.308778    0.749357
C     -1.290040    1.468374   -0.275138
C     -2.689841    0.802558   -0.281483
C     -2.498216   -0.378200    0.626343
C     -4.659154   -1.255661   -0.028548
C      4.724165   -0.150915    0.618213
C     -2.757569    2.976627    0.101436
C     -1.148238   -0.812690    0.135594
N     -5.593174   -2.215837    0.016599
N     -3.513271   -1.366557    0.643619
O     -6.372347   -4.276686    0.765668
O     -4.874598   -0.199507   -0.737882
O      1.873087   -0.410926    0.201237
O     -1.457273    2.603467    0.513552
O     -3.467444    1.809133    0.207432
Si     3.360641   -0.248245   -0.639838
H      5.111165   -2.215594    0.361598
H      4.000481   -1.867426    1.750194
H      5.797735   -1.572667    1.898307
H      5.128093    1.064898    2.400524
H      3.384994    0.493546    2.150856
H      4.043695    1.793333    1.136367
H      6.801837   -0.538475    0.030738
H      6.491458    1.119696    0.574407
H      5.937221    0.608185   -1.038733
H     -2.881628    5.024459    0.642132
H     -2.954690    3.825874    2.048639
H     -4.399902    4.024955    0.946750
H     -1.845082    4.302406   -1.284102
H     -3.631979    4.026002   -1.568666
H     -2.438230    2.813624   -2.063564
H      3.050951    2.123404   -1.074514
H      2.542471    1.102014   -2.500165
H      4.250816    1.470658   -2.206830
H      3.412802   -2.663361   -0.957970
H      2.716224   -1.856626   -2.384474
H      4.541269   -1.876071   -2.125364
H     -4.087212   -4.367375    2.033955
H      0.429790   -2.240925   -0.291019
H     -1.191738   -3.032508   -0.043319
H     -0.575209   -0.761359   -2.068635
H     -2.204777   -1.552074   -1.758233
H     -2.363116   -2.598098    1.961671
H      1.387232    1.519035   -0.060652
H      0.895580    0.479903   -1.403762
H     -0.286428    0.621444    1.431347
H     -0.928603    1.691706   -1.273652
H     -2.834528    0.543359   -1.351071
H     -2.396212    0.065481    1.663922
H     -6.556570   -4.905625    0.014151
