42

C     -4.705056   -1.758166    0.285550
C     -4.681074    0.203533   -1.167983
C     -4.868280    0.470658    1.244077
C      4.570022   -0.671357    1.169796
C      3.182595   -0.693828    0.979982
C      0.194337    1.902869    0.195245
C      1.154203    1.701607   -0.982735
C      4.884941   -0.408461   -1.187892
C      0.224144   -0.542425    0.473922
C      5.401782   -0.529899    0.091008
C      2.634374   -0.577386   -0.258366
C      3.525763   -0.434455   -1.333442
C      1.218333   -0.586332   -0.618745
C     -1.965475    0.719820    0.189570
C     -4.204310   -0.314333    0.160318
F      3.045889   -0.314571   -2.592831
N      6.824057   -0.501565    0.233882
N     -0.561924    0.678828    0.286008
O     -2.528638    1.829996    0.027370
O      1.034896    0.459149   -1.558558
O     -2.803238   -0.376156    0.258680
H     -4.393864   -2.331905   -0.603256
H     -4.161068   -2.198147    1.145961
H     -5.794296   -1.771791    0.487371
H     -4.479458   -0.498068   -2.005946
H     -4.345887    1.241607   -1.368905
H     -5.807032    0.262600   -1.096188
H     -4.141828    0.540015    2.092766
H     -5.072035    1.538221    0.959276
H     -5.789990   -0.038918    1.585751
H      4.960423   -0.766336    2.169353
H      2.557389   -0.809473    1.837846
H     -0.401380    2.808093    0.071456
H      0.764094    2.013435    1.143868
H      0.874207    2.446863   -1.769595
H      2.159204    1.954992   -0.630557
H      5.563178   -0.298201   -2.018193
H      0.696206   -0.424311    1.461560
H     -0.441358   -1.433430    0.516414
H      1.000645   -1.531356   -1.216233
H      7.430856   -1.087634   -0.367174
H      7.244654    0.126217    0.961572
