23

C     -0.787125    1.651581   -0.783721
C      0.475972    1.704643    0.085702
C     -1.768655    0.781451   -0.011122
C      0.708876   -2.028361   -0.109292
C      2.906434   -1.168767    0.033679
C      1.034611    0.308184    0.033307
C      0.162758   -0.745569   -0.062584
C      2.396633    0.113607    0.081946
C     -1.298152   -0.634622   -0.120123
Br     3.608479    1.584815    0.215610
N     -1.957947   -1.431631    0.916059
N      2.027023   -2.181130   -0.060264
H     -0.489807    1.103904   -1.703667
H     -1.182597    2.640083   -1.004731
H      0.155643    1.860602    1.128619
H      1.184352    2.445858   -0.280902
H     -2.801919    0.918829   -0.367954
H     -1.767153    1.068977    1.062970
H      0.046033   -2.889139   -0.185472
H      3.983727   -1.346168    0.070867
H     -1.613596   -1.006837   -1.135954
H     -2.224351   -0.851943    1.730053
H     -2.799241   -1.898367    0.466974
