23

C     -1.270091   -1.542417   -0.146853
C     -0.048685   -1.431350    0.711302
C     -1.929930   -0.248269   -0.468199
C      1.100919    1.747730   -0.849641
C      2.991917    0.373066   -0.650970
C      0.848024   -0.429270    0.112966
C      0.297770    0.771542   -0.280366
C      2.198461   -0.605769   -0.082525
C     -1.152911    0.967137   -0.072460
Br     2.990726   -2.250668    0.448567
N     -1.415012    1.292515    1.329064
N      2.416439    1.518598   -1.016123
H     -1.013255   -2.131608   -1.058689
H     -2.012486   -2.164621    0.430081
H     -0.337077   -1.220282    1.750047
H      0.448658   -2.424067    0.714206
H     -2.971218   -0.180669   -0.049715
H     -2.049373   -0.201076   -1.590628
H      0.618469    2.678572   -1.143395
H      4.044211    0.159944   -0.771638
H     -1.465306    1.862262   -0.674253
H     -1.731530    2.295566    1.436021
H     -0.558718    1.163134    1.923202
