57

C      5.648473    0.671327    2.708530
C      5.448656    1.617621    1.732651
C      5.576569   -0.671695    2.463860
C     -3.253585   -2.208497   -1.814403
C     -3.708599   -0.938094   -2.452411
C      5.166344    1.192564    0.465741
C      5.286933   -1.076200    1.161668
C     -2.298530   -2.016626   -0.668684
C     -2.721172    0.167926   -2.483979
C     -0.611979    1.162891   -1.673617
C      0.650620    0.453986   -2.079407
C     -1.971559    0.690620    2.304456
C     -0.199646   -0.270337    0.950817
C     -3.528966    1.201894    0.115812
C     -3.690093    1.642227    3.813366
C      4.776775   -0.538057   -1.237430
C      5.082295   -0.162247    0.166533
C     -1.539093    0.364681    1.048728
C     -3.223959    1.293253    2.484094
C     -1.179543   -1.169225   -1.180125
C     -2.321120    0.620602   -0.058669
C      0.009094   -1.089440   -0.272188
C     -4.009570    1.550548    1.373956
C      2.405052   -0.794543   -0.777819
C     -1.751733    0.225434   -1.370937
N      1.073125   -0.476783   -1.046636
O     -2.964083    1.399965    4.793992
O     -5.258735    2.139035    1.425726
O      2.681488   -1.606684    0.129836
O      3.428199   -0.223526   -1.501868
H      5.872991    0.995914    3.717233
H      5.510218    2.665773    1.948275
H      5.725385   -1.441868    3.194816
H     -4.127305   -2.784406   -1.431693
H     -2.750119   -2.871477   -2.551514
H     -4.012747   -1.175899   -3.495024
H     -4.646967   -0.619347   -1.936914
H      4.998001    1.911255   -0.351395
H      5.229109   -2.143813    0.946121
H     -2.799809   -1.589197    0.230852
H     -1.874592   -3.013487   -0.412945
H     -3.257037    1.136217   -2.553940
H     -2.119468    0.112245   -3.439888
H     -0.906364    1.856921   -2.485405
H     -0.365849    1.818271   -0.798430
H      0.560006   -0.020847   -3.069901
H      1.445845    1.216751   -2.158654
H     -1.401639    0.513683    3.208289
H      0.548727    0.570825    1.036560
H     -0.032517   -0.888177    1.856865
H     -4.135897    1.400525   -0.740752
H     -4.639591    2.099036    3.948363
H      4.939837   -1.626508   -1.411340
H      5.464027   -0.003606   -1.914939
H     -0.864504   -1.536136   -2.158029
H      0.292762   -2.144259    0.012027
H     -5.654162    2.408995    2.289768
