47

C     -2.820059    1.516206   -0.450261
C     -1.912437    2.277280    0.444807
C     -1.884357    0.710906   -1.369904
C     -0.773728    1.578012    1.049967
C     -0.580175   -0.835631    1.752918
C     -0.780686   -2.215833    1.125767
C      2.694793   -0.473108   -1.462809
C      0.384092   -0.967683   -2.051554
C      1.370374   -0.407888   -1.057749
C     -1.353105   -0.357429   -0.438224
C      3.678356   -0.013129   -0.642274
C     -0.730663   -1.523229   -1.177018
C      0.971595    0.103988    0.148444
C      2.007048    0.564868    0.962590
C      3.334859    0.505144    0.569145
C     -0.429623    0.197467    0.614499
Br     1.694312    1.303541    2.697209
Cl     5.350039   -0.113169   -1.193407
N     -0.090880   -2.331508   -0.145060
O      4.370348    0.969599    1.390079
C      0.500988    0.253004   -0.123864
C     -0.954954   -0.052648   -0.032512
F     -1.651468    1.133368   -0.157744
F     -1.270767   -0.576454    1.218963
F     -1.358126   -0.949588   -0.999418
O      0.916345    1.430196   -0.288130
O      1.470821   -0.733987   -0.033753
H     -3.440814    0.771745    0.089561
H     -3.431668    2.215044   -1.038061
H     -1.632781    3.215196   -0.129400
H     -2.561788    2.702156    1.269972
H     -2.550498    0.205682   -2.091708
H     -1.109842    1.334236   -1.813858
H      0.125157    2.235490    0.844853
H     -0.855461    1.562000    2.167628
H      0.312058   -0.912630    2.357404
H     -1.506402   -0.582170    2.277091
H     -1.846098   -2.495684    1.070332
H     -0.309863   -3.002398    1.787501
H      2.973813   -0.887031   -2.430809
H      0.847251   -1.842634   -2.548534
H      0.037109   -0.209364   -2.760376
H     -2.282295   -0.789346    0.045208
H     -1.450480   -2.060118   -1.783344
H      0.000261   -3.321159   -0.397082
H      4.182238    1.372579    2.316458
H      2.347160   -0.503891    0.416459
