31

C     -3.178128    0.921299   -0.293557
C      2.509200    1.463095    1.531459
C     -0.884562   -0.092812    1.484353
C      0.060717   -1.873612    0.117272
C     -2.428996   -0.028091   -1.176713
C     -0.094370    0.295797   -1.996456
C      1.308799    0.205732   -1.506555
C      3.148596   -0.700920    0.897322
C      2.219491    0.383294    0.798044
C     -0.964227   -0.022744   -1.013510
C      1.027501    0.477669   -0.011776
C     -0.130447   -0.390135    0.199774
O      2.989655   -1.743496    0.249653
H     -4.145822    1.212443   -0.816464
H     -2.644250    1.878777   -0.147624
H     -3.457132    0.454929    0.644820
H      3.385156    1.466094    2.132932
H      1.858283    2.301587    1.501400
H     -1.696368   -0.835254    1.563097
H     -1.287242    0.907947    1.532103
H     -0.174279   -0.336956    2.302265
H      0.574697   -2.198005   -0.799106
H     -0.973538   -2.377849    0.094178
H      0.510585   -2.322495    1.024709
H     -2.850660   -1.058658   -1.073118
H     -2.656368    0.295381   -2.231521
H     -0.347884    0.581479   -3.010899
H      1.731845   -0.786925   -1.622137
H      1.944329    1.021596   -1.901184
H      4.012295   -0.643668    1.536649
H      0.633123    1.544501   -0.009412
