55

C      4.145560    1.032583   -2.276044
C     -1.470440   -0.635354   -2.968941
C      1.331245   -0.636625   -0.428419
C      7.662708   -0.045266    2.418860
C     -2.986228    0.818781    1.214848
C     -5.306216    0.789697    1.793411
C     -3.184379   -1.026395   -1.292714
C      2.859935    0.417305   -1.831491
C     -2.892076   -1.212422   -2.800663
C      2.548583   -0.146886   -0.591108
C     -0.931834   -0.982017   -1.603103
C      0.415204   -0.593505   -1.427722
C      7.467914    1.076821    3.190580
C     -1.867943    0.410901    0.360098
C     -6.597811    0.193884    1.432071
C      3.588312   -0.167654    0.474367
C      5.784844    0.356254    1.175956
F     -2.808542   -2.569495   -3.039990
F      8.138389    1.653897    4.235216
N     -4.265157    0.270813    0.907963
N      6.793324   -0.278793    1.493977
N      4.750175    0.317286    0.278733
N     -1.965575   -0.453917   -0.755110
O     -0.725451    0.902664    0.689163
O     -6.662549   -0.628459    0.486855
O     -7.785557    0.482352    2.078768
O      3.341317   -0.708632    1.711205
S      1.427827    0.248242   -2.751357
S      5.929042    1.745131    2.454857
C      0.456249    0.338048   -0.037354
C     -0.954386   -0.101644    0.011736
F     -1.184764   -0.891555   -1.085329
F     -1.836871    0.944101   -0.029311
F     -1.139371   -0.769151    1.200663
O      0.825039    1.532613   -0.090410
O      1.429544   -0.662662   -0.022637
H      4.133361    1.146973   -3.387313
H      4.323778    2.000115   -1.764187
H      5.000919    0.320777   -2.087505
H     -1.555526    0.459297   -3.069935
H     -0.937100   -1.132213   -3.787269
H      0.986883   -1.130610    0.535773
H      8.568532   -0.706922    2.627705
H     -3.055769    1.927311    1.307329
H     -2.729263    0.437398    2.252767
H     -5.399371    1.894552    1.636726
H     -5.017082    0.629429    2.847802
H     -3.424907   -2.000945   -0.840169
H     -4.051122   -0.331381   -1.273167
H     -3.618284   -0.690662   -3.428358
H     -1.029788   -2.110785   -1.501230
H     -4.278105   -0.793433    1.035025
H     -8.687913    0.113311    1.807963
H      4.036138   -0.663402    2.457777
H      2.404561   -0.389749    0.052641
