47

C     -1.926123    1.945737    0.958192
C     -1.237881    2.396056   -0.311938
C     -1.126782    0.746893    1.471073
C     -1.109626    1.273264   -1.308901
C     -0.628845   -1.089233   -1.765498
C     -1.628705   -2.105208   -1.273740
C      2.645790   -0.669050    1.184433
C      0.462892   -1.639416    1.443923
C      1.344201   -0.690723    0.726800
C     -1.312181   -0.342709    0.440170
C      3.591460    0.144627    0.622752
C     -0.936428   -1.687335    0.956874
C      0.928480    0.118901   -0.333775
C      1.869317    0.941138   -0.908090
C      3.171908    0.936659   -0.420637
C     -0.446355    0.063049   -0.782953
Cl     1.542151    2.009112   -2.257967
F      4.866065    0.154516    1.084058
N     -1.209128   -2.700305   -0.018688
O      4.114291    1.785097   -1.022835
C      0.462241    0.326289   -0.097864
C     -0.956380   -0.063293    0.084770
F     -1.814029    0.985128   -0.224227
F     -1.092202   -0.426476    1.421977
F     -1.242832   -1.142331   -0.710516
O      0.841566    1.454513   -0.481166
O      1.428561   -0.626932    0.175744
H     -1.824768    2.749816    1.697158
H     -2.951453    1.608904    0.811027
H     -1.879583    3.175712   -0.769024
H     -0.275050    2.816525   -0.041029
H     -0.091527    1.109505    1.546696
H     -1.525456    0.429633    2.457841
H     -0.833779    1.676036   -2.264845
H     -2.204731    0.946400   -1.466243
H      0.337586   -1.610767   -1.923442
H     -0.971310   -0.727293   -2.753454
H     -2.664478   -1.750316   -1.270764
H     -1.597711   -2.943617   -2.023913
H      2.974494   -1.304484    2.018270
H      0.492994   -1.349947    2.517592
H      0.889624   -2.682310    1.372514
H     -2.384964   -0.323671    0.156420
H     -1.596500   -1.865658    1.853259
H     -1.936559   -3.352207    0.292226
H      5.068670    1.806669   -0.693542
H      2.373074   -0.506900   -0.168719
