32

C     -5.070375    1.063700   -0.910605
C      3.794911   -0.548099   -1.232725
C      4.673233    1.096938    0.374859
C     -0.150433   -2.234931    0.515839
C     -3.812925    0.257827   -0.557563
C     -3.438412    0.464200    0.882906
C      3.441317    0.644385   -0.336913
C      0.137128   -0.785105    0.929660
C      2.384638    0.161811    0.588075
C     -1.093164   -0.018377    0.595334
O      2.601890    0.191330    1.822703
O     -0.995278    0.873337   -0.284279
O     -2.294262   -0.267288    1.217695
O      1.186475   -0.312313    0.142984
H     -5.900013    0.741097   -0.252909
H     -5.345526    0.877843   -1.948600
H     -4.846930    2.149811   -0.758076
H      4.484622   -1.193453   -0.676585
H      2.850268   -1.101013   -1.474175
H      4.295211   -0.140089   -2.112150
H      4.506635    1.270462    1.470639
H      5.480098    0.332434    0.305485
H      5.109342    2.022903   -0.085411
H     -0.412512   -2.183660   -0.566659
H      0.685744   -2.901295    0.737821
H     -1.069752   -2.548771    1.042871
H     -4.072116   -0.826183   -0.713749
H     -3.011126    0.474823   -1.277856
H     -3.241631    1.555250    1.056380
H     -4.255856    0.153602    1.567103
H      3.030793    1.479947   -0.967496
H      0.348008   -0.751121    2.018048
