32

C     -5.372710    0.794538   -0.361190
C      4.508310    0.659690   -1.480041
C      4.071211    1.049446    0.894101
C      0.099640   -1.688331    1.598397
C     -4.006473    0.409273    0.218751
C     -3.475563   -0.702278   -0.642492
C      3.435455    1.007356   -0.485468
C      0.241058   -0.963345    0.281721
C      2.379476   -0.038491   -0.519725
C     -1.072664   -0.422827   -0.157346
O      2.479608   -1.031499   -1.313683
O     -1.128275    0.792553   -0.474920
O     -2.216354   -1.169317   -0.234440
O      1.253884   -0.011586    0.277102
H     -6.011974   -0.107456   -0.403453
H     -5.146165    1.118747   -1.418121
H     -5.775684    1.607832    0.245466
H      4.306862   -0.354073   -1.929010
H      5.518942    0.578669   -1.015601
H      4.510142    1.355116   -2.358762
H      3.670055    1.869688    1.512471
H      5.166507    1.246932    0.773486
H      3.998542    0.055366    1.370977
H      1.075535   -2.192168    1.798812
H     -0.632456   -2.512797    1.429781
H     -0.203926   -1.013546    2.417722
H     -4.151601    0.052128    1.240124
H     -3.344990    1.293966    0.141264
H     -3.514014   -0.373955   -1.690547
H     -4.186624   -1.555832   -0.545562
H      3.011629    1.997202   -0.739372
H      0.512616   -1.751003   -0.480716
