27

C      0.889154   -1.459650    0.109325
C     -4.239218   -0.426381   -0.567479
C     -3.370548   -0.925692    0.374320
C     -3.769199    0.411795   -1.557532
C     -2.032130   -0.619489    0.370175
C     -2.435295    0.724645   -1.572167
C      0.822287    0.048009    0.295690
C     -1.565697    0.214637   -0.615721
C     -0.152959    0.568359   -0.668210
C      3.101691    0.606009    0.832980
C      4.370189    1.265422    0.452628
F      4.265512    1.863044   -0.785829
F      5.370774    0.317490    0.366187
F      4.718767    2.222782    1.385429
N      2.111580    0.657584    0.027194
O      0.242610    1.351001   -1.576915
O      3.049233   -0.045849    2.064926
H      1.902653   -1.719176   -0.275988
H      0.821868   -1.942150    1.102863
H      0.108980   -1.822222   -0.560217
H     -5.295134   -0.668290   -0.563754
H     -3.740057   -1.581044    1.147811
H     -4.475657    0.791086   -2.287141
H     -1.386078   -1.025610    1.122300
H     -2.072010    1.384996   -2.354326
H      0.578384    0.251789    1.339529
H      2.180297   -0.443094    2.393920
