50

C      7.788183   -0.442052   -1.522889
C     -2.628109    0.036824    3.761108
C     -0.750560    1.437294    3.183356
C     -4.696871    0.019974   -2.382332
C     -3.670120    1.672293   -0.822120
C     -5.487377    0.128196   -0.039856
C      6.976910    0.808951   -1.746282
C     -0.391948   -0.795049    0.723784
C      2.803217   -1.725236   -2.453607
C     -1.252975   -0.002752    3.050650
C     -1.452762   -0.416344    1.644003
C      3.483657   -0.764863   -1.781223
C      0.656646    0.235978    0.512659
C      1.681627   -0.325341   -0.522364
C      4.908555   -0.466016   -2.115321
C     -4.294561    0.297768   -0.943987
N      2.786671   -0.154600   -0.845786
N     -2.667354   -0.446421    1.184435
O      1.395393    0.337272    1.725697
O      5.499393   -1.091818   -3.015042
O     -3.881935   -2.195358   -0.251606
O      5.630344    0.510482   -1.446836
S      1.150655   -1.678583   -1.662404
S     -2.991194   -0.927489   -0.481883
H      8.443305   -0.364300   -0.630902
H      7.154470   -1.343103   -1.381376
H      8.385826   -0.614999   -2.455810
H     -3.095662   -0.953616    3.763079
H     -2.400941    0.314175    4.809264
H     -3.240853    0.821778    3.302462
H     -0.702155    1.947096    2.206480
H      0.184044    1.502194    3.788325
H     -1.489475    2.019704    3.824442
H     -5.347443    0.851950   -2.692830
H     -5.254798   -0.922758   -2.404729
H     -3.809216    0.020683   -3.038540
H     -4.467742    2.357895   -0.462012
H     -3.304019    1.959938   -1.842093
H     -2.814312    1.641582   -0.149095
H     -5.280539   -0.636946    0.744896
H     -5.715459    1.063109    0.485857
H     -6.401459   -0.208280   -0.605598
H      7.305445    1.662503   -1.125408
H      7.002830    1.132824   -2.820334
H     -0.813921   -1.015955   -0.310340
H      0.095714   -1.758774    1.047623
H      3.057725   -2.434498   -3.290848
H     -0.621276   -0.699076    3.589732
H      0.342284    1.221044    0.205740
H      2.192140   -0.262469    1.689863
