44

C      0.065981   -1.875513    2.257503
C      1.467720   -1.715594    1.801070
C      1.430975    3.648498    1.042997
C      1.395395    2.253700    0.863889
C     -0.743038   -2.022503    0.937474
C     -2.510477   -1.573350   -0.748672
C     -0.860727    3.771209    0.605384
C     -3.847347    0.834904   -0.954281
C     -4.286226   -2.765445   -1.879420
C     -3.747903   -1.542856   -1.367877
C      0.314195    4.401581    0.915448
C      0.226935    1.595003    0.552465
C     -4.387873   -0.325370   -1.454032
C      1.661141   -0.329271    1.254358
C     -1.920795   -0.417972   -0.225712
C     -0.883759    2.379774    0.428959
C     -2.609166    0.765706   -0.341988
C      0.512948    0.137256    0.424766
C      3.297793   -0.770901   -0.537043
C      4.733973   -0.640438   -0.985421
F      0.325878    5.766698    1.086763
F     -5.610394   -0.341244   -2.075393
F      5.447063   -0.009037   -0.003062
F      5.299142   -1.873456   -1.246367
F      4.797235    0.090051   -2.156374
N     -4.718468   -3.766962   -2.317284
N      2.917021   -0.343705    0.584244
N     -0.641791   -0.683346    0.367829
O      2.475395   -1.395384   -1.474276
O     -2.166591    1.998991    0.125140
H     -0.070434   -2.826818    2.790054
H     -0.335021   -1.016385    2.838925
H      2.122002   -1.891648    2.697516
H      1.669316   -2.462660    1.015852
H      2.369166    4.133685    1.288408
H      2.349227    1.763229    0.978452
H     -1.735333   -2.271791    1.342221
H     -0.211438   -2.785470    0.389654
H     -1.942289   -2.487385   -0.640204
H     -1.750732    4.373509    0.503594
H     -4.357837    1.770581   -1.029954
H      1.779799    0.353500    2.172506
H      0.945646    0.109734   -0.648670
H      1.733690   -2.013107   -1.252452
