64

C     -5.040990    2.661579   -2.131133
C      3.570453   -0.278654    3.874252
C     -4.121434   -2.749989    2.095088
C     -5.482923   -2.675342   -2.330035
C     -5.425400    1.448729   -2.919656
C      2.073524   -0.401228    4.026300
C      6.953086    0.458354   -3.013603
C      5.611540    0.781738   -2.903666
C      7.570715   -0.144910   -1.949356
C     -4.255507    0.497061   -3.097235
C      4.890813    0.511106   -1.754374
C      6.848075   -0.410663   -0.810690
C     -2.567982    0.547340   -1.279456
C     -2.746093   -0.825259    0.653261
C     -0.081714   -0.430053    2.689546
C      4.843683   -0.430145    0.586070
C      5.500386   -0.091190   -0.687136
C      1.463807   -0.315315    2.649484
C     -3.741332    0.027639   -1.792356
C     -2.039111    0.136711   -0.046663
C     -3.915494   -1.341904    0.139436
C      1.121673    1.051204    2.158962
C     -4.432758   -0.934031   -1.076547
C      1.989422    1.683123    1.162039
C     -0.809298    0.750073    0.423092
N      2.975825    1.170096    0.566734
N     -0.090939    0.435341    1.581596
O      1.689540    3.022623    0.823485
O     -0.337943    1.696286   -0.330187
O     -4.613844   -2.303154    0.846832
O     -5.616257   -1.498517   -1.531971
O      3.503962   -0.062486    0.665687
H     -3.943717    2.865233   -2.185330
H     -5.638988    3.554632   -2.471954
H     -5.254093    2.555900   -1.034992
H      3.817097    0.649207    3.323674
H      3.976180   -1.127713    3.262243
H      4.081411   -0.356966    4.855568
H     -4.166999   -1.887023    2.804493
H     -3.060674   -3.058029    2.035010
H     -4.712854   -3.599451    2.490143
H     -4.446777   -2.863465   -2.640336
H     -5.846454   -3.576302   -1.812532
H     -6.087648   -2.580853   -3.279034
H     -6.275299    0.927797   -2.434492
H     -5.759502    1.734117   -3.952853
H      1.705281    0.419586    4.655673
H      1.875399   -1.380678    4.493519
H      7.519990    0.671004   -3.915898
H      5.161412    1.256572   -3.766652
H      8.613368   -0.406447   -2.009232
H     -4.615520   -0.400580   -3.642270
H     -3.459556    0.952514   -3.711291
H      3.844197    0.765885   -1.673544
H      7.363053   -0.882959    0.001246
H     -2.053336    1.289511   -1.854348
H     -2.402668   -1.175922    1.607909
H     -0.399498   -1.484365    2.602348
H     -0.462430    0.050081    3.638617
H      5.430391   -0.082415    1.478798
H      4.876987   -1.556485    0.665519
H      1.813098   -1.049409    1.922167
H      0.894543    1.720828    3.012487
H      2.326119    3.567270    0.247546
