43

C      0.950430   -2.533593   -0.697652
C      1.489654   -1.895369    0.529428
C      0.886375    3.424827   -1.260751
C      0.898485    2.046618   -1.204120
C     -0.593708   -2.422719   -0.660116
C     -1.097276    3.417870    0.044424
C     -3.022620   -1.900745   -0.234032
C     -4.124451    0.330619    0.867599
C     -0.123517    4.123795   -0.629134
C     -0.070647    1.308273   -0.531897
C     -4.379069   -1.878801    0.112119
C     -4.946485   -0.755682    0.669879
C      1.323209   -0.401544    0.385590
C     -2.198438   -0.816968   -0.037506
C     -1.063428    2.034181    0.086907
C     -2.774036    0.317144    0.526006
C      0.231259   -0.110538   -0.657676
C      3.585477    0.100009    0.772554
C      4.927944    0.635036    0.431016
Br    -5.408191   -3.446131   -0.212483
F     -0.167071    5.480271   -0.663936
F     -6.259247   -0.758004    0.996302
F      5.901249   -0.355466    0.479627
F      5.298371    1.667088    1.272301
F      4.908817    1.128584   -0.855393
N      2.587129    0.140686   -0.028591
N     -0.860499   -1.021553   -0.441166
O      3.429953   -0.464625    2.021459
O     -2.108396    1.502490    0.798574
H      1.147454   -3.640306   -0.675564
H      1.357075   -2.180679   -1.645006
H      0.870187   -2.213868    1.391603
H      2.550165   -2.192365    0.716537
H      1.652313    3.992284   -1.791233
H      1.731285    1.558624   -1.730242
H     -0.866993   -2.803863   -1.649238
H     -0.831596   -3.066277    0.206796
H     -1.878806    3.992216    0.531634
H     -2.603926   -2.785365   -0.668820
H     -4.543758    1.220677    1.301991
H      1.022141    0.086508    1.324258
H      0.620425   -0.285340   -1.682535
H      2.552760   -0.577998    2.490487
