44

C      0.775406   -0.812870   -2.397371
C      1.703430    0.287209   -2.081198
C     -0.567682    4.048076   -0.959711
C      0.170103    2.876320   -0.732828
C      0.238615   -1.566291   -1.163461
C     -1.390133   -2.469337    0.521451
C     -2.456606    3.096461    0.087289
C     -3.506496   -0.999214    1.550066
C     -2.440400   -4.543113    1.156962
C     -2.445954   -3.124202    1.096548
C     -1.880219    4.179007   -0.558516
C     -0.418819    1.826081   -0.096003
C     -3.509169   -2.372255    1.612725
C      1.762311    0.678268   -0.632239
C     -1.377892   -1.090433    0.453439
C     -1.746568    1.937938    0.318294
C     -2.451469   -0.352628    0.975618
C      0.472697    0.679627    0.070826
C      3.370153   -0.182343    0.953553
C      4.113514   -1.343670    1.509785
F     -2.598337    5.307882   -0.774528
F     -4.558815   -3.002259    2.183564
F      3.846680   -1.523840    2.852169
F      5.470951   -1.029239    1.367670
F      3.856876   -2.499336    0.825123
N     -2.433160   -5.685172    1.209974
N      2.561027   -0.406810    0.003169
N     -0.205371   -0.588566   -0.179275
O      3.605369    1.063743    1.503493
O     -2.572956    1.036902    0.976082
H     -0.082731   -0.375390   -2.988367
H      1.211297   -1.583653   -3.068816
H      1.548779    1.201526   -2.684105
H      2.746687   -0.055873   -2.352450
H     -0.099070    4.892610   -1.470117
H      1.179533    2.925128   -1.101923
H     -0.636075   -2.090310   -1.646990
H      1.053561   -2.201298   -0.850086
H     -0.549062   -2.989722    0.113691
H     -3.487095    3.214533    0.395986
H     -4.312454   -0.388429    1.939603
H      2.414174    1.548076   -0.544404
H      0.742973    0.710450    1.179856
H      2.882396    1.766414    1.425453
