42

C     -2.888912   -1.641793    2.669549
C     -3.554062   -1.398432    0.263244
C     -3.331262   -1.075448   -1.062506
C      1.613918    2.528350   -0.605139
C      0.945045    2.202701   -1.932277
C     -1.348319   -0.804338    0.856650
C      3.008103    1.344291    1.086618
C      1.626682   -0.960411    0.693300
C     -1.734787   -0.219712   -2.833260
C     -2.604143   -1.282511    1.256483
C      1.953950    1.304658    0.162097
C     -2.084336   -0.606090   -1.431024
C     -1.119527   -0.483818   -0.448463
C      1.257331    0.154854   -0.040052
C     -0.217294    1.286668   -1.725169
C      3.377467    0.236208    1.818125
C      2.672578   -0.930078    1.613727
C      0.169539    0.031953   -0.969824
N     -0.911584    0.965733   -2.912976
O      4.437590    0.309038    2.736126
O      2.984531   -2.074253    2.306862
Cl     0.688885    0.000000    0.000000
H     -3.690957   -2.415623    2.668564
H     -2.001606   -1.952365    3.227054
H     -3.368674   -0.742192    3.154675
H     -4.527294   -1.766343    0.558523
H     -4.101530   -1.178803   -1.817955
H      2.490913    3.149462   -0.813795
H      0.833159    3.075182   -0.005045
H      1.702716    1.836238   -2.629811
H      0.561916    3.164069   -2.333051
H     -0.611002   -0.708838    1.640267
H      3.547406    2.272533    1.229777
H      1.117141   -1.928124    0.581124
H     -1.256035   -1.058609   -3.359398
H     -2.696238    0.032500   -3.347871
H     -0.925937    1.837419   -1.037330
H      0.472859   -0.696610   -1.794610
H     -0.235858    0.834219   -3.687976
H      4.734476   -0.476411    3.285881
H      3.702036   -2.165275    2.978885
H     -0.688885    0.000000    0.000000
