61

C     -2.197322    3.347454   -3.088309
C     -5.705022   -0.934879    3.158207
C     -4.577417   -1.831524   -2.183958
C      6.961134   -0.843126   -0.053235
C      6.142951   -1.460707   -0.960652
C      6.424536   -0.333148    1.099876
C      4.799420   -1.545418   -0.674971
C      5.082556   -0.420675    1.379587
C      0.267835    2.927194   -2.983543
C      1.340674    2.231230   -2.479089
C     -0.746546    0.297650    2.732031
C      0.525847   -0.394042    2.206538
C     -1.204955    1.595139   -1.629683
C     -3.098271   -0.438804    2.234047
C     -2.530441   -0.874680   -0.387712
C      2.781841   -1.134914    0.775511
C      2.247003    0.423203   -0.969779
C     -1.005370    2.621915   -2.570290
C      4.243081   -1.040323    0.475206
C     -1.819784   -0.192876    1.792625
C      1.130142    1.211212   -1.543545
C     -0.148889    0.898159   -1.122491
C     -1.540600   -0.416557    0.460717
C      0.829726    0.256864    0.904980
C     -4.084479   -0.900010    1.366802
C     -3.817615   -1.127898    0.032548
C     -0.219058   -0.192578   -0.126417
N      2.137265    0.091538    0.406375
O     -5.362490   -1.143162    1.820028
O     -4.817256   -1.587933   -0.812542
Cl     0.685643    0.000000    0.000000
H     -1.957925    4.425950   -3.219274
H     -3.046845    3.298763   -2.390948
H     -2.427362    2.928015   -4.088986
H     -5.299477   -0.017849    3.603608
H     -5.497678   -1.830942    3.802153
H     -6.826642   -0.814954    3.186786
H     -3.613009   -2.361172   -2.361887
H     -4.684324   -0.913664   -2.767663
H     -5.391250   -2.526817   -2.541738
H      8.001820   -0.766253   -0.252984
H      6.496115   -1.883225   -1.885568
H      7.072797    0.158006    1.822424
H      4.155316   -2.032481   -1.386632
H      4.704791   -0.007094    2.295642
H      0.407852    3.735335   -3.721882
H      2.357049    2.464337   -2.799425
H     -0.952941    0.048398    3.768748
H     -0.624176    1.374933    2.516517
H      0.257344   -1.453379    2.017075
H      1.343463   -0.297576    2.948053
H     -2.203273    1.354439   -1.301209
H     -3.297453   -0.255351    3.289281
H     -2.332063   -1.060060   -1.450631
H      2.416537   -1.992143    0.140897
H      2.587840   -1.423486    1.806950
H      3.171230    1.034370   -1.095862
H      2.316938   -0.520982   -1.567866
H      0.675478    1.367900    1.067344
H      0.151355   -1.121319   -0.628021
H     -0.685643    0.000000    0.000000
