62

C      6.985170    1.621499   -0.345497
C      5.417651    2.630344    1.278678
C     -2.570233   -1.902899    2.153713
C     -0.729547    0.266627   -1.853588
C     -6.316265    2.323153    0.212192
C     -5.332600    0.716284    1.770875
C     -3.888324    2.375666    0.667443
C      3.669514    1.389531   -1.547002
C      4.526569   -0.042968    0.117926
C      2.730367    0.406139   -1.865654
C      3.584110   -1.025500   -0.204396
C     -0.336777   -3.706427    2.250553
C      2.081925   -3.197547   -1.297493
C      5.616226    2.186171   -0.154506
C     -1.504453   -1.810673    1.135036
C     -0.639611   -0.750743   -0.791841
C      4.584520    1.166565   -0.539955
C      2.673516   -0.793254   -1.212613
C     -0.448225   -2.686176    1.206325
C      1.657288   -1.796831   -1.591192
C      0.448003   -1.625323   -0.748356
C     -1.632331   -0.844592    0.165371
C      0.535001   -2.581561    0.245163
C     -3.760406   -0.290449   -0.608694
C     -5.095027    1.474347    0.486866
N     -2.762936    0.054179    0.131804
N     -4.878968    0.609012   -0.635834
O     -0.860416   -4.830211    1.987517
O     -3.809343   -1.454415   -1.361519
O      1.713398   -3.331774    0.070808
H      7.668512    2.447909   -0.636533
H      7.036958    0.874965   -1.153839
H      7.361951    1.241231    0.625020
H      4.659595    2.017402    1.799138
H      6.367276    2.493448    1.838825
H      5.184072    3.726556    1.344759
H     -2.193685   -2.448560    3.043133
H     -3.497223   -2.330714    1.739394
H     -2.786761   -0.860397    2.532027
H     -0.090614    1.143161   -1.652827
H     -0.360622   -0.193117   -2.794446
H     -1.794656    0.575102   -1.996775
H     -6.596593    2.958398    1.071885
H     -7.170983    1.633737   -0.024421
H     -6.134693    2.907148   -0.711425
H     -4.901916    1.213283    2.647170
H     -6.428043    0.617659    1.908527
H     -4.952448   -0.337669    1.641167
H     -3.274313    1.951833    1.473864
H     -3.276134    2.363838   -0.271687
H     -4.209234    3.420327    0.842164
H      3.703280    2.330841   -2.069745
H      5.240539   -0.221103    0.906043
H      2.026302    0.609491   -2.661125
H      3.574230   -1.952750    0.332625
H      0.146295   -3.554456    3.187422
H      1.501165   -3.875381   -1.954892
H      3.154819   -3.396543   -1.457123
H      5.508737    3.085524   -0.792401
H      1.330053   -1.680226   -2.653544
H     -5.524037    0.637181   -1.451388
H     -2.929625   -1.946289   -1.534428
