58

C      6.555285   -0.593054    1.630302
C     -5.107263   -2.885222    1.113872
C     -4.780327   -2.680258   -1.356235
C     -6.479187   -1.309955   -0.144814
C      2.440318    5.109944   -1.286920
C      2.126129    4.969196    0.048738
C      1.906346    4.184305   -2.158836
C      4.802920   -3.514574   -0.015077
C      5.755937   -2.723036    0.606309
C      1.308030    3.936262    0.476151
C      1.088615    3.152437   -1.728839
C      3.573271   -2.928035   -0.265374
C     -1.478136    2.095989   -0.506912
C     -2.406656    1.269622    0.358996
C     -0.517004   -0.424368    0.501760
C      1.792308    0.273282    0.178746
C      5.518276   -1.412085    0.968677
C      0.773169    3.009639   -0.394649
C      0.384767    0.554921   -0.241467
C     -0.085522    1.937707    0.110132
C      3.335144   -1.619461    0.096010
C     -2.828922   -1.154593    0.218001
C     -5.105714   -1.943794   -0.064061
N      4.291626   -0.918300    0.687666
N     -1.916395   -0.078857    0.360610
O     -2.473741   -2.369538    0.209952
O      2.087054   -1.068145   -0.173140
O     -4.165722   -0.897717    0.080384
H      6.118995    0.389574    1.879094
H      6.894827   -1.070908    2.571577
H      7.437017   -0.464672    0.937803
H     -4.259503   -2.699821    1.802898
H     -5.007534   -3.912104    0.740540
H     -6.030276   -2.792006    1.717160
H     -4.098097   -3.513495   -1.110588
H     -4.340881   -1.948768   -2.064927
H     -5.739061   -3.057257   -1.758015
H     -6.452800   -0.332552    0.385082
H     -7.227969   -1.930814    0.396223
H     -6.749919   -1.154750   -1.209832
H      3.082978    5.919904   -1.629478
H      2.552314    5.703152    0.722580
H      2.151607    4.293972   -3.202284
H      5.005773   -4.528919   -0.288507
H      6.743818   -3.153985    0.821229
H      1.071364    3.842817    1.539763
H      0.668361    2.425305   -2.408669
H      2.811509   -3.522603   -0.748986
H     -1.772768    3.141063   -0.592714
H     -1.455173    1.572941   -1.505526
H     -2.398841    1.735656    1.366952
H     -3.405786    1.321374   -0.108431
H     -0.191150   -0.408091    1.562159
H     -0.310501   -1.433255    0.112228
H      2.510313    0.906034   -0.384187
H      1.908251    0.354006    1.268878
H      0.292672    0.334873   -1.313195
H     -0.204147    2.011012    1.191192
