62

C      4.789295    2.625944    2.163596
C      6.739605    1.394340    1.286362
C     -3.557438   -1.100947   -2.414927
C      0.133553   -0.522900    0.838110
C     -5.345044    2.273238    2.251993
C     -4.302527    0.040813    2.298029
C     -5.632167    0.782550    0.350613
C      3.992936   -0.790219    1.627693
C      4.124683    0.775432   -0.163259
C      3.147533   -1.601026    0.858947
C      3.279420   -0.044314   -0.919784
C     -1.761611   -2.494880   -4.173778
C      2.311895   -2.169465   -2.672306
C      5.371350    1.251301    1.925882
C     -2.143737   -1.325391   -2.058479
C     -0.378494   -1.025507   -0.455865
C      4.481993    0.395277    1.121242
C      2.789326   -1.226806   -0.419686
C     -1.268736   -1.996930   -2.900203
C      1.915692   -2.067219   -1.209919
C      0.503580   -1.694382   -1.287863
C     -1.693914   -0.845743   -0.845918
C      0.041529   -2.173196   -2.506476
C     -2.571809    1.134430   -0.002193
C     -4.634777    1.213904    1.401075
N     -2.598095   -0.158273    0.010573
N     -3.468346    1.841374    0.847289
O     -2.245453   -3.637780   -4.286296
O     -1.685753    1.849856   -0.828667
O      1.117590   -2.812082   -3.171631
H      3.688148    2.642983    2.132701
H      5.098810    3.021988    3.153980
H      5.241696    3.321066    1.406043
H      7.258564    2.251013    1.756547
H      6.685405    1.593337    0.202910
H      7.343455    0.463219    1.454525
H     -3.701766   -0.272779   -3.143007
H     -3.947109   -2.069287   -2.810170
H     -4.154919   -0.879442   -1.513618
H      0.356991   -1.354582    1.537392
H     -0.725571    0.033716    1.323347
H      0.924473    0.231648    0.744524
H     -6.270602    1.874135    2.689092
H     -4.622243    2.560011    3.054746
H     -5.543246    3.177486    1.646785
H     -5.138804   -0.052581    3.030852
H     -3.363967    0.180946    2.851489
H     -4.308199   -0.881810    1.689399
H     -5.621346   -0.312473    0.299851
H     -6.667206    1.130261    0.577072
H     -5.344138    1.215790   -0.633491
H      4.259800   -1.102671    2.624948
H      4.512836    1.697157   -0.539765
H      2.756766   -2.535003    1.245998
H      2.989431    0.234520   -1.920630
H     -1.700853   -1.856570   -5.020291
H      2.332867   -1.199601   -3.194653
H      3.186048   -2.801575   -2.833884
H      5.527475    0.769056    2.906675
H      1.920057   -3.150660   -0.858968
H     -3.203883    2.854508    1.032110
H     -1.221048    1.324800   -1.556662
