56

C      5.778341    0.854448    1.951540
C     -3.080341   -1.518406    2.419210
C     -4.116252   -1.995769    0.293511
C     -1.611845    2.627669   -0.763905
C     -3.325693    1.232174   -1.905203
C      1.942345   -1.960765   -2.637441
C      4.632918   -0.079943    2.297682
C      0.244554   -1.780182   -0.083783
C     -0.969115   -1.837396    0.534203
C     -4.013043    0.311237    1.014708
C     -3.284164    1.544996    0.604031
C     -0.311004    0.249346   -1.094091
C      2.475992    1.782480   -1.696862
C      3.631306    0.147079    0.228171
C      0.625356   -0.739792   -0.922044
C     -1.929491   -0.826979    0.359686
C     -1.571543    0.202130   -0.458149
C      2.682622    0.386628   -2.076826
C      3.241883   -0.570759   -1.015897
C     -3.241012   -0.949837    1.018025
C     -2.498876    1.354573   -0.674787
C      1.934319   -0.781001   -1.595224
O      2.001567    2.224566   -0.684205
O      4.146978   -0.736214    1.170994
H      6.435253    0.895998    2.840505
H      5.472892    1.874411    1.708395
H      6.420881    0.401126    1.135419
H     -2.338045   -1.005867    3.035776
H     -4.113520   -1.414022    2.872948
H     -2.910268   -2.607759    2.330688
H     -3.547388   -2.877539   -0.005007
H     -4.921898   -2.280441    1.022383
H     -4.583932   -1.521195   -0.596265
H     -2.224757    3.502080   -0.453225
H     -1.313879    2.817645   -1.819341
H     -0.689369    2.501859   -0.167265
H     -3.237314    0.267942   -2.440304
H     -3.157462    2.091161   -2.621164
H     -4.412919    1.361977   -1.622854
H      2.883821   -1.887556   -3.209612
H      1.940880   -2.900208   -2.049545
H      1.025287   -1.857163   -3.223082
H      5.012910   -0.830650    3.001073
H      3.860264    0.508693    2.802752
H      0.991450   -2.573601    0.059964
H     -1.249653   -2.653259    1.185954
H     -4.949263    0.259106    0.379796
H     -4.369396    0.492097    2.064852
H     -2.520066    1.748050    1.394083
H     -4.041742    2.355405    0.511018
H     -0.138125    1.096572   -1.740383
H      2.786847    2.580759   -2.411013
H      2.764177    0.627748    0.746014
H      4.433537    0.860091   -0.041712
H      3.218380    0.281288   -3.078137
H      4.086616   -1.255030   -1.365814
