63

C     -6.437658   -2.405535    0.466644
C     -7.663305   -0.285916    0.449857
C      2.714480   -1.788124   -1.936791
C      0.335926    0.172849    1.939003
C      6.240076   -0.048333    1.645633
C      5.305142    0.201561   -0.640920
C      5.484847    2.121381    0.844136
C     -4.790989   -0.169528   -0.620829
C     -4.381114    0.132245    1.680131
C     -3.604007    0.459995   -0.894122
C     -3.171395    0.773325    1.385263
C      3.799177    0.440765    1.343648
C      0.989353   -0.406164   -3.706206
C     -1.585363    2.314073   -1.543351
C     -6.466924   -1.013826    1.025282
C      1.631757   -0.905842   -1.372731
C      0.479117    0.044044    0.461828
C     -5.192748   -0.340284    0.673100
C     -2.764143    0.946648    0.078795
C      0.805771   -0.244748   -2.266928
C     -1.484666    1.628982   -0.202207
C      3.379227   -0.965029    1.451405
C     -0.360384    0.716474   -0.388263
C      1.495973   -0.783712   -0.006526
C     -0.189364    0.565879   -1.748969
C      5.188837    0.617015    0.799131
N      2.370778   -1.484225    0.855158
O      1.763009    0.392063   -4.296411
O      4.138270   -1.801718    2.267590
O     -1.131445    1.322885   -2.431860
H     -5.972505   -2.369335   -0.540684
H     -7.483277   -2.770471    0.417972
H     -5.825069   -3.030339    1.168307
H     -7.576034    0.823306    0.615794
H     -8.541191   -0.594492    1.058852
H     -7.874888   -0.542581   -0.591208
H      3.248029   -2.306937   -1.130550
H      3.438969   -1.106925   -2.433204
H      2.293841   -2.475412   -2.703511
H      0.313109    1.270502    2.194298
H     -0.572129   -0.342751    2.305259
H      1.215985   -0.246889    2.466510
H      7.146478    0.613568    1.759642
H      5.900778   -0.247499    2.686147
H      6.629955   -0.982954    1.190755
H      4.578267    0.793936   -1.234154
H      5.221715   -0.882104   -0.788444
H      6.331407    0.516467   -0.978078
H      6.579619    2.280603    0.944396
H      5.123221    2.620829   -0.061772
H      4.980077    2.529295    1.754762
H     -5.402689   -0.527236   -1.424424
H     -4.705734   -0.006437    2.706123
H     -3.287754    0.591045   -1.930690
H     -2.570081    1.125796    2.200164
H      3.798497    0.869786    2.376732
H      3.113677    1.042577    0.716677
H      0.469520   -1.189606   -4.224825
H     -2.652972    2.503050   -1.746467
H     -0.972763    3.238734   -1.588229
H     -6.597692   -1.051072    2.106490
H     -1.278391    2.434652    0.539906
H      4.031786   -2.788305    2.290776
