56

C      5.529963    1.392966    0.113145
C     -4.051897   -2.173313   -1.118366
C     -3.769461    0.173511   -1.995878
C     -1.739326    1.540922    2.327936
C     -1.757181    2.365372    0.027658
C      2.175352   -2.707376    1.468595
C      4.661638    1.703778   -1.124537
C      0.022834   -2.040258   -0.621015
C     -1.290974   -1.901944   -0.998674
C     -4.159711   -0.321101    0.451389
C     -3.673986    1.049964    0.810005
C     -0.132210   -0.136590    0.795246
C      2.467438    1.144746    1.221148
C      3.217118   -0.235186   -1.380035
C      0.622057   -1.151981    0.289517
C     -2.065822   -0.885356   -0.498662
C     -1.484432   -0.012381    0.386611
C      2.926037   -0.270878    1.192479
C      3.190005   -0.974766   -0.078309
C     -3.521394   -0.760213   -0.869675
C     -2.197530    1.184522    0.930433
C      2.020277   -1.353831    0.701615
O      2.664223    1.871620    2.169526
O      4.118043    0.648956   -1.641310
H      6.564987    1.815833   -0.098449
H      5.194499    1.940726    1.006356
H      5.582550    0.328771    0.336375
H     -3.874201   -2.396532   -2.178486
H     -3.485139   -2.919469   -0.530002
H     -5.124362   -2.204096   -0.841489
H     -4.219705   -0.425701   -2.828783
H     -2.833249    0.694131   -2.344904
H     -4.487332    0.952300   -1.707213
H     -1.598657    0.687288    2.990856
H     -0.816365    2.176212    2.229695
H     -2.501367    2.215270    2.767328
H     -1.244591    2.002091   -0.873665
H     -1.046316    3.019336    0.561251
H     -2.640988    2.966922   -0.241562
H      3.078380   -2.685642    2.083048
H      1.270345   -2.881246    2.083773
H      2.303682   -3.506457    0.689084
H      3.966360    2.516517   -0.764799
H      5.325473    2.309933   -1.848423
H      0.602971   -2.840013   -1.027626
H     -1.776440   -2.583755   -1.707500
H     -3.747921   -1.017512    1.235385
H     -5.254744   -0.364770    0.424609
H     -4.107332    1.282095    1.832037
H     -4.124487    1.838035    0.146946
H      0.215815    0.575828    1.528225
H      1.924751    1.599851    0.371601
H      3.331704   -1.090342   -2.164950
H      2.141380    0.093179   -1.648635
H      3.527473   -0.551013    2.077309
H      4.081766   -1.698952   -0.036733
