66

C     -3.857179   -1.703621    2.469355
C     -4.625904    4.197210    0.408100
C      2.273111   -4.566692    0.453139
C     -3.297039   -0.347111    2.824724
C     -5.196375    3.185525    1.374056
C     -2.292268   -0.869428   -2.778863
C     -2.881428   -0.308867   -1.654381
C      3.220190    1.592511    0.312569
C      4.115322   -0.512994   -0.276615
C      4.971973    1.492349   -1.296922
C     -0.236900   -0.987328   -1.612419
C     -1.038122   -0.753897    1.906393
C      2.303354   -0.409659    1.432556
C      3.214015    0.206910    0.476308
C     -0.944120   -1.228224   -2.791957
C      4.076608    2.225328   -0.553874
C      4.991541    0.118178   -1.157964
C     -2.240501    0.169465    1.939890
C     -0.803848   -0.436742   -0.492176
C     -2.166212   -0.085750   -0.512241
C     -0.091237   -0.248844    0.783351
C      1.092485   -2.411448    0.634190
C     -3.680836    1.522622    0.452993
C     -0.329006   -1.841550   -4.000840
C      4.033022    3.729267   -0.667669
C      5.990705   -0.623132   -1.976487
F     -1.364987   -2.075540   -4.908474
F      0.228475   -3.089526   -3.725082
F      0.622489   -1.060530   -4.596264
F      3.120520    4.258057    0.182394
F      5.291135    4.211833   -0.308491
F      3.774057    4.052789   -1.972955
F      5.745472   -0.318358   -3.301575
F      5.913903   -1.967762   -1.753315
F      7.234731   -0.097786   -1.613715
N      1.105972   -1.022042    0.934556
N     -2.696464    0.529120    0.644559
O      0.092727   -3.050972    0.226370
O     -4.140736    1.869934   -0.673444
O      2.262699   -3.173586    0.780412
O     -4.188531    2.183195    1.581297
H     -4.345614   -1.672470    1.498955
H     -4.624137   -1.913092    3.277076
H     -3.112728   -2.516774    2.567603
H     -3.619776    4.000186    0.056452
H     -4.679612    5.195750    0.881966
H     -5.295975    4.178426   -0.507011
H      2.067728   -4.669348   -0.650010
H      1.459055   -5.120125    0.946006
H      3.244088   -5.014906    0.686420
H     -2.941645   -0.367073    3.908798
H     -4.169130    0.341858    2.859394
H     -5.339067    3.643390    2.401200
H     -6.080395    2.666197    1.005168
H     -2.868722   -1.046520   -3.688393
H     -3.930567   -0.045973   -1.678237
H      2.527681    2.220016    0.897146
H      4.183595   -1.595022   -0.215995
H      5.650579    2.021718   -1.972562
H      0.817341   -1.254563   -1.642668
H     -0.519635   -0.675460    2.862495
H     -1.259559   -1.793800    1.673597
H      2.895908   -1.202912    1.997882
H      2.076552    0.334354    2.259282
H     -1.851507    1.118841    2.429139
H      0.112728    0.814399    0.954810
