53

C      0.124205    0.160519    2.528817
C     -4.757928   -1.369276    1.043791
C     -5.177232    0.076796    1.366334
C      1.058320    1.591889   -2.182837
C      3.514773   -2.272481    1.945657
C      3.953580   -0.440147   -0.182900
C     -3.079624    1.358366   -0.932197
C     -2.621388    0.106344    0.906704
C      2.032732    0.908612   -1.495291
C      4.311492    0.271961   -1.336426
C      3.135577   -1.070634    2.668490
C     -0.233916    1.549094   -1.704952
C      2.369561   -1.322376    1.449553
C     -4.045092    0.140430   -0.954821
C      1.719532    0.185280   -0.330217
C     -0.605621    0.860719   -0.574983
C      3.332162    0.944950   -1.986367
C      0.415791    0.189196    0.095558
C      5.692968    0.269012   -1.793931
C     -4.043867   -0.213906    0.476404
F      3.969988    0.031739    2.693176
F     -1.145732    2.286088   -2.433058
N     -5.320167    0.532246   -1.490855
N     -1.979322    0.773756   -0.204702
N      2.714827   -0.495195    0.312803
O      3.546318    1.606668   -3.022313
O      6.074058    0.886283   -2.818274
O      6.662502   -0.437031   -1.092064
O      0.053044   -0.481082    1.257311
B     -0.003760    0.478553   -0.000000
F      1.250370   -0.238202    0.000000
F     -1.246610   -0.240351   -0.000000
H     -0.776389    0.648878    2.885755
H      0.978144    0.905388    2.558056
H      0.368657   -0.575939    3.354208
H     -4.281125   -1.911535    1.886407
H     -5.424248   -1.916858    0.345432
H     -4.936895    0.436751    2.400827
H     -6.161900    0.405624    1.012757
H      1.323019    2.146366   -3.079866
H      3.199717   -3.257060    2.385191
H      4.435959   -2.341671    1.412015
H      4.748826   -0.956887    0.332082
H     -3.587871    2.155386   -0.337614
H     -2.941667    1.627538   -1.959925
H     -2.757399    0.802977    1.768626
H     -2.178617   -0.865220    1.171593
H      2.680516   -1.230016    3.691651
H      1.479036   -1.994314    1.350032
H     -3.605687   -0.615257   -1.607364
H     -5.785083   -0.311672   -1.863089
H     -5.889184    1.122680   -0.878372
H      7.440646   -0.902977   -1.562622
