66

C      1.505575    2.540491    3.289757
C      7.204678    0.348091    0.600168
C     -1.080128   -1.774098    2.490193
C      1.898197    1.134646    2.755040
C      6.430904   -0.951525    0.806558
C      2.631142   -2.234345   -2.141552
C      3.013466   -1.641884   -0.942756
C     -4.071067   -0.482054   -1.307205
C     -4.066006    1.650392   -0.295635
C     -6.021317    0.227410   -0.202467
C      0.859813   -0.695147   -2.366454
C      0.780367    1.582941    0.628309
C     -1.998645    0.798015   -1.518926
C     -3.373261    0.724782   -1.008651
C      1.560007   -1.771751   -2.867695
C     -5.348643   -0.717393   -0.909468
C     -5.364011    1.429288    0.106994
C      2.048267    1.198478    1.266389
C      1.251919   -0.117566   -1.171076
C      2.328984   -0.556423   -0.436131
C      0.379923    0.970746   -0.623300
C     -1.323519   -0.438429    0.526503
C      4.212608    0.018317    1.077832
C      1.228516   -2.383282   -4.205892
C     -5.990870   -2.007662   -1.234497
C     -6.185782    2.404164    0.858816
F      0.858570   -1.342263   -5.083615
F      0.302247   -3.368553   -4.126866
F      2.383169   -2.909407   -4.773034
F     -6.859772   -2.362223   -0.209940
F     -6.672458   -1.904669   -2.411379
F     -5.009131   -3.006799   -1.353808
F     -6.865733    1.823077    1.897259
F     -7.117626    2.916605   -0.012602
F     -5.410591    3.431310    1.373549
N     -0.997972    0.456716   -0.517824
N      2.832607    0.196203    0.664891
O     -2.507197   -0.937373    0.617194
O      4.618309    0.650147    2.054393
O     -0.482366   -0.873476    1.535442
O      5.089095   -0.804396    0.429479
H      1.185436    3.133654    2.409901
H      0.707915    2.483192    4.038146
H      2.411139    3.007300    3.760988
H      8.263515    0.073909    0.426498
H      6.819294    0.840825   -0.314736
H      7.178417    0.947354    1.512048
H     -1.545749   -2.586526    1.935876
H     -0.280844   -2.149272    3.153552
H     -1.838779   -1.195457    3.101075
H      2.804762    0.782362    3.294445
H      1.064697    0.499062    3.102431
H      6.956205   -1.726334    0.219736
H      6.581980   -1.251619    1.879052
H      3.198231   -3.091928   -2.493252
H      3.826505   -2.060686   -0.366995
H     -3.582327   -1.263070   -1.868488
H     -3.557176    2.576084   -0.054720
H     -7.045447    0.102834    0.141090
H      0.052104   -0.330496   -2.953325
H      0.805936    2.701914    0.435986
H     -0.038572    1.450456    1.394085
H     -1.951130    0.116740   -2.388243
H     -1.755107    1.852520   -1.915395
H      2.730265    2.160758    1.144731
H      0.336465    1.705323   -1.488852
