21

C      2.029860   -1.558901   -0.153536
C      2.740403   -0.456207    0.267890
C      0.695501   -1.387538   -0.468018
C      2.166312    0.791946    0.382395
C      0.074292   -0.152397   -0.368594
C      0.831985    0.929762    0.060817
C     -1.348363    0.082228   -0.695197
C     -2.267779   -0.930578   -0.143888
N      0.241627    2.215393    0.179009
O     -1.701948    1.362161   -0.241979
O     -2.165739   -2.147142   -0.414007
O     -3.288652   -0.538364    0.706726
H      2.504384   -2.544246   -0.238308
H      3.780164   -0.602723    0.510213
H      0.117707   -2.227982   -0.800504
H      2.721001    1.658766    0.712631
H     -1.399076    0.124576   -1.813915
H      0.094176    2.829251   -0.634300
H     -0.044489    2.527447    1.131779
H     -2.171746    1.258229    0.622270
H     -3.609621   -1.233679    1.398516
