32

C     -3.959163   -1.173750   -0.065647
C      0.891375   -1.444286    0.406417
C     -3.992348    0.242353    0.443419
C     -2.825439    1.059396   -0.014994
C     -1.497885    0.451671    0.462619
C     -0.428189    1.352057   -0.055723
C      0.978956    1.037925    0.279620
C      5.371635   -0.361441   -0.068166
C      1.564097   -0.246308   -0.159072
C      3.984370   -0.344461   -0.633492
Cl     6.011716    1.289695    0.093510
O      3.742216   -0.394044   -1.852677
O      2.941867   -0.270182    0.253481
H     -3.958254   -1.222686   -1.168589
H     -4.885931   -1.677929    0.279938
H     -3.113467   -1.743810    0.376881
H      1.674621   -2.178337    0.764205
H      0.279152   -2.005566   -0.338869
H      0.295990   -1.217243    1.294595
H     -4.075706    0.249096    1.528658
H     -4.906689    0.715845    0.033065
H     -2.893508    2.052592    0.473847
H     -2.775429    1.188456   -1.097173
H     -1.463214   -0.522367   -0.067355
H     -1.493573    0.308507    1.539707
H     -0.509387    1.476546   -1.180343
H     -0.594341    2.425572    0.296269
H      1.080822    1.192141    1.395241
H      1.606618    1.907972   -0.118482
H      6.009610   -0.965553   -0.754753
H      5.341496   -0.881215    0.908456
H      1.597983   -0.300646   -1.294859
