36

C     -0.321927   -2.261403   -1.542161
C      0.303709   -2.912580    0.772259
C     -1.885427    3.150246    0.110584
C     -1.759375    0.992329   -1.155891
C     -2.150376   -0.202585   -0.340521
C     -0.126102    1.501094    0.691329
C     -0.712380   -2.216751   -0.102677
C     -0.988408    2.026724   -0.420297
C     -1.021273   -0.833865    0.404008
C      0.142638    0.070738    0.382156
C      3.539384    0.409025    0.930035
N      3.505736   -0.396633    1.934282
N      1.345592   -0.271915    0.122537
N      2.394402    0.646491    0.122008
S      5.101325    1.237000    0.575065
H      0.740278   -2.002240   -1.724062
H     -0.415054   -3.338012   -1.874490
H     -1.027836   -1.699584   -2.155588
H      0.015351   -3.950117    1.018186
H      1.307777   -2.944867    0.332580
H      0.407414   -2.375453    1.753826
H     -2.490220    2.776373    0.960166
H     -2.568421    3.432863   -0.715612
H     -1.262334    4.018144    0.377708
H     -1.253015    0.688886   -2.098184
H     -2.723998    1.473715   -1.494677
H     -2.565626   -0.961113   -1.037302
H     -3.011338    0.069756    0.336481
H      0.796450    2.092262    0.774607
H     -0.666997    1.601902    1.673673
H     -1.662065   -2.805422    0.000289
H     -0.296731    2.540836   -1.145547
H     -1.328396   -0.938026    1.466717
H      2.602264   -0.874792    2.138607
H      2.394059    1.518358   -0.446712
H      5.640920    0.738614   -0.623386
