32

C     -4.841421    0.025461    0.920888
C      2.082817   -1.775905    0.696775
C     -3.409812    0.280769    0.494383
C     -3.007622   -0.534985   -0.713019
C     -1.602122   -0.213244   -1.069193
C     -0.573750   -0.519466   -0.013855
C      0.762451   -0.093350   -0.596424
C      5.051868    1.684001   -0.438341
C      1.911194   -0.321013    0.336429
C      3.825044    1.158690    0.178762
Cl     4.784405    3.449731   -0.684806
O      3.361904    1.674524    1.267748
O      3.084457    0.118688   -0.320838
H     -4.972428    0.591393    1.868165
H     -5.545681    0.403901    0.153555
H     -5.034029   -1.038674    1.122372
H      3.012614   -1.877179    1.319863
H      2.297213   -2.337811   -0.234461
H      1.251740   -2.198391    1.279524
H     -3.317188    1.354949    0.163309
H     -2.700272    0.143143    1.314424
H     -3.663272   -0.254254   -1.573168
H     -3.109759   -1.628712   -0.518258
H     -1.476175    0.888742   -1.300593
H     -1.302470   -0.773367   -1.981516
H     -0.789196    0.093648    0.876246
H     -0.544485   -1.595640    0.245636
H      0.724087    0.958739   -0.872819
H      0.876290   -0.700384   -1.529248
H      5.208591    1.202008   -1.419774
H      5.930614    1.545483    0.196937
H      1.724395    0.288503    1.259992
