21

C     -1.523526   -1.826330   -0.638055
C     -2.591204   -0.990706   -0.391059
C     -0.217184   -1.322325   -0.576883
C     -2.310027    0.324268   -0.090673
C      0.059159   -0.016008   -0.278224
C     -1.022951    0.812133   -0.032420
C      1.434691    0.535531   -0.212735
C      2.377425   -0.328718    0.538755
N     -0.797613    2.188267    0.285045
O      1.349529    1.807408    0.363784
O      2.976401    0.099734    1.583865
O      2.678058   -1.627867    0.183059
H     -1.661459   -2.878604   -0.882327
H     -3.590967   -1.399334   -0.443302
H      0.609921   -1.990306   -0.775782
H     -3.137457    0.988685    0.104674
H      1.813170    0.666633   -1.256459
H     -0.592948    2.884595   -0.441935
H     -0.845507    2.474911    1.279822
H      1.412593    1.665485    1.359976
H      3.579897   -2.067452    0.320872
