39

C      5.145539   -1.314252    1.317294
C     -4.000735   -1.866716    0.231725
C     -3.969437    0.186584    1.561252
C     -4.471911    0.272908   -0.843726
C      5.396181   -0.747632   -0.058582
C      0.482432    2.211610   -0.516915
C      1.260793    2.150493   -1.839917
C      0.685828   -0.236465   -0.589483
C      1.888755   -0.046316   -1.445269
C      3.062996   -0.755153   -0.854292
C     -1.537929    0.876847   -0.172145
C     -3.618436   -0.385689    0.184508
N     -0.141333    0.906537   -0.423489
O      3.012719   -1.988495   -0.541737
O     -2.225049    1.920192   -0.033020
O      4.270377   -0.124208   -0.610183
O      2.268054    1.253649   -1.662977
O     -2.246874   -0.326544   -0.061921
H      4.517806   -0.632637    1.942730
H      6.136948   -1.357914    1.830666
H      4.761132   -2.349848    1.295794
H     -5.076972   -2.014063    0.045445
H     -3.675325   -2.275359    1.190729
H     -3.399195   -2.363020   -0.576289
H     -3.908294    1.287592    1.460732
H     -3.269099   -0.212642    2.309823
H     -5.027224   -0.074955    1.766444
H     -5.073362   -0.458846   -1.453123
H     -5.252112    0.921840   -0.356791
H     -3.927870    0.932607   -1.536004
H      6.191192    0.020132    0.039855
H      5.777791   -1.569140   -0.686079
H      1.238047    2.259163    0.297554
H     -0.232712    3.035991   -0.506958
H      1.680885    3.144608   -2.009476
H      0.530074    1.896626   -2.626873
H      0.035791   -1.065034   -0.994897
H      1.010155   -0.586714    0.413561
H      1.700375   -0.525737   -2.428609
