42

C      5.168702    0.036351   -2.093587
C      1.229104   -0.121961    3.231985
C      4.714081    0.352527   -0.697594
C      0.704612    0.808753    2.196397
C      3.168077    0.229031   -0.676559
C     -5.720421   -1.072704   -0.047595
C     -4.779382   -1.736405    0.706858
C      2.675883    0.537992    0.703318
C     -5.281711   -0.139884   -0.938072
C     -3.465002   -1.451396    0.548685
C      0.717930   -0.880468    0.388889
C      1.190504    0.475286    0.779027
C     -3.905919    0.163634   -1.108872
C     -2.976029   -0.490549   -0.364925
C     -3.531792    1.165980   -2.077985
C     -1.544738   -0.273615   -0.441446
O     -2.423855    1.589435   -2.399765
O     -4.594944    1.779386   -2.790148
O     -0.929545    0.504698   -1.156237
O     -0.693449   -1.038918    0.403091
H      6.011802    0.717388   -2.390920
H      4.347845    0.207594   -2.803314
H      5.491254   -1.022870   -2.164218
H      1.787181    0.491409    3.998373
H      0.400753   -0.600042    3.832227
H      1.842091   -0.947096    2.859910
H      4.954567    1.380004   -0.396581
H      5.105638   -0.366465    0.043370
H     -0.400291    0.724221    2.154146
H      0.942395    1.874000    2.364914
H      2.803877    0.912631   -1.461252
H      2.951977   -0.807384   -1.022952
H     -6.781536   -1.277939    0.055277
H     -5.165889   -2.472567    1.405680
H      3.102983    1.480644    1.106869
H      3.054248   -0.304023    1.359782
H     -6.011617    0.394084   -1.542437
H     -2.742582   -1.979500    1.146463
H      1.122433   -1.124203   -0.620497
H      1.114509   -1.632583    1.090055
H      0.786550    1.271086    0.138304
H     -4.440293    2.644439   -3.318664
