33

C     -3.828161    1.233829   -1.529903
C      5.288168    0.590542   -0.256752
C      0.688006    0.987461    1.669118
C     -3.434812   -0.200071   -1.206129
C      4.420181    0.982242   -1.157052
C     -2.203132   -0.142548   -0.283480
C     -1.748052   -1.493929    0.084870
C     -0.615576   -1.705067    0.982371
C      0.754615   -1.314448    0.695521
C      1.065168    0.108002    0.483468
C      2.971355    0.819615   -0.909379
O      2.126233    1.191815   -1.766277
O      2.491647    0.261799    0.253126
H     -4.715756    1.237503   -2.171201
H     -2.936176    1.706660   -2.014756
H     -3.997800    1.810154   -0.599973
H      4.937686    0.153288    0.656275
H      6.339842    0.702120   -0.422635
H      0.902245    2.039026    1.330750
H      1.237796    0.741788    2.577360
H     -0.386178    0.908991    1.839505
H     -3.197390   -0.743043   -2.129827
H     -4.265927   -0.686447   -0.659097
H      4.768304    1.419521   -2.070317
H     -1.480014    0.539992   -0.727219
H     -2.571948    0.364716    0.651244
H     -2.684600   -2.051871    0.458276
H     -1.535175   -2.089297   -0.865478
H     -0.578035   -2.852603    1.161961
H     -0.930756   -1.383533    2.045025
H      1.442652   -1.797603    1.455904
H      1.058701   -1.849314   -0.268425
H      0.616888    0.510709   -0.411112
