31

C     -4.901788   -0.658049   -0.096962
C     -4.113704    0.551091   -0.568636
C     -2.828001    0.720064    0.237973
C      4.753440   -0.096529   -1.392831
C      4.551990    1.123692   -0.784577
C      3.938385   -1.177331   -1.170222
C      3.482734    1.239797    0.078044
C      2.883855   -1.008571   -0.299301
C     -2.029660   -0.559616    0.014687
C      2.622485    0.185389    0.345105
C      1.485661    0.322949    1.267482
C      0.196494    0.372281    0.503430
O      1.417591   -0.765425    2.118202
O     -0.003136    1.274203   -0.345198
O     -0.808404   -0.557459    0.698536
H     -5.974108   -0.379903    0.099535
H     -4.497648   -0.936809    0.905947
H     -4.868747   -1.468264   -0.824228
H     -4.753117    1.445694   -0.438580
H     -3.883223    0.430869   -1.654115
H     -3.118454    0.829856    1.287924
H     -2.313324    1.592180   -0.184535
H      5.589995   -0.231791   -2.084241
H      5.229099    1.951265   -0.995657
H      4.140270   -2.116764   -1.674360
H      3.302279    2.191313    0.570261
H      2.246114   -1.876142   -0.133277
H     -1.908958   -0.655915   -1.091187
H     -2.606952   -1.448840    0.336478
H      1.614739    1.253295    1.877773
H      1.154094   -1.546528    1.559336
