38

C     -4.282993   -0.144130   -0.876627
C     -4.422317    1.296853    1.129505
C      0.268793   -1.620655    0.387189
C      6.336245    0.297819    0.513463
C     -1.692565    0.887558   -0.036376
C     -2.409515   -0.154878    0.735905
C     -0.233885    0.855124    0.092386
C      2.009656    0.064089   -0.254144
C      2.948013   -0.909706   -0.856445
C     -3.933714   -0.007344    0.588109
C      0.534462   -0.352600   -0.330013
C      4.917474   -0.195301    0.430642
O      4.280633   -0.386330    1.501002
O      4.291685   -0.444320   -0.757112
H     -5.373690   -0.341882   -0.938102
H     -3.986747    0.771130   -1.414379
H     -3.739041   -1.033009   -1.264953
H     -3.886119    1.620174    2.044283
H     -5.491701    1.145405    1.459870
H     -4.459201    2.083749    0.349985
H     -0.309848   -2.374414   -0.170227
H     -0.215922   -1.423838    1.380502
H      1.259012   -2.124387    0.659181
H      6.963027   -0.173391   -0.267907
H      6.710629    0.135026    1.521271
H      6.292806    1.385989    0.301407
H     -2.117970    1.893834    0.232144
H     -1.949670    0.819627   -1.148760
H     -2.196027   -1.143522    0.267029
H     -2.190664   -0.197554    1.810086
H      0.101808    1.050086    1.164901
H      0.163724    1.781723   -0.441715
H      2.053441    0.998609   -0.890691
H      2.212851    0.344951    0.772881
H      2.732284   -1.134285   -1.924764
H      2.916403   -1.884100   -0.337339
H     -4.396765   -0.830398    1.142796
H      0.295408   -0.555703   -1.429000
