54

C      3.662397    1.709890    1.742636
C     -3.217929    1.970335   -0.094875
C     -3.609084   -0.245529   -1.012362
C      4.912909    0.071982   -0.479132
C     -0.971640   -1.964057   -0.759474
C      3.507477    0.436642    1.472827
C      1.662876   -1.782065   -0.087341
C     -2.535439   -1.264486    1.713523
C      3.122937   -1.512489   -0.014251
C     -1.037032   -1.237299    1.554278
C     -0.999620    0.849384   -1.636582
C      2.617591    0.706215   -0.809139
C      1.298801    0.492917   -0.782795
C      0.842038   -0.541278    0.182373
C      0.421428    1.276191   -1.685694
C     -1.328572    0.458524   -0.217247
C     -3.118100    0.075963    1.421978
C     -2.791772    0.495096    0.000146
C      3.506673   -0.075912    0.094904
C     -0.633396   -0.806624    0.149881
O      0.530718    2.618542   -1.280881
O     -4.482466    0.105118    1.602884
H      3.659125    2.057815    2.756321
H      3.794467    2.416255    0.943429
H     -3.478341    2.234959   -1.146242
H     -4.139895    2.123414    0.518093
H     -2.431664    2.640865    0.277281
H     -4.486112    0.363528   -1.383387
H     -3.071758   -0.564208   -1.903358
H     -4.105440   -1.103118   -0.469537
H      5.638637    0.021432    0.363606
H      5.138860   -0.678464   -1.238018
H      5.061954    1.073385   -0.940273
H     -2.019332   -2.280243   -0.599344
H     -0.352618   -2.834429   -0.389855
H     -0.687491   -1.815499   -1.799434
H      3.376073   -0.260577    2.286593
H      1.433557   -2.160856   -1.106725
H      1.406718   -2.610406    0.616694
H     -2.721845   -1.472659    2.804775
H     -3.018137   -2.075530    1.166318
H      3.668331   -1.948596   -0.897772
H      3.585179   -2.041866    0.869326
H     -0.655097   -2.276816    1.717430
H     -0.582288   -0.565002    2.280885
H     -1.653312    1.722779   -1.900227
H     -1.194133    0.073942   -2.375500
H      3.000182    1.464130   -1.509604
H      1.147804   -0.198575    1.215562
H      0.761461    1.251824   -2.739290
H     -0.875371    1.268415    0.429201
H     -2.591638    0.824370    2.080323
H     -0.306671    2.864945   -0.815839
H     -4.662001    0.647726    2.412850
