54

C      4.170401   -2.182571   -0.361506
C     -3.563885    0.871059    0.786335
C     -3.387411    1.215655   -1.599034
C      4.948941    0.660791   -0.001326
C     -0.951474   -0.426050    1.852436
C      3.566457   -1.114959   -0.846536
C      1.620745   -0.449690    1.490573
C     -2.485546   -2.113482   -0.081068
C      3.080966   -0.119106    1.393312
C     -1.026227   -1.876534   -0.071025
C     -0.962366    1.897691   -0.191887
C      2.594333    1.151414   -0.539047
C      1.276341    0.995644   -0.423982
C      0.843352   -0.265165    0.215166
C      0.344855    2.055361   -0.928596
C     -1.411186    0.469556   -0.453222
C     -3.276751   -1.054878   -0.805602
C     -2.902476    0.342652   -0.418612
C      3.526614    0.104723   -0.044522
C     -0.627859   -0.468704    0.376496
O      0.141782    1.797158   -2.285886
O     -4.621198   -1.315911   -0.646388
H      4.630938   -2.161686    0.614069
H      4.243763   -3.132919   -0.897899
H     -4.098219    0.123397    1.403725
H     -4.329184    1.638511    0.545855
H     -2.792167    1.436424    1.387834
H     -4.325959    0.769953   -2.023560
H     -3.624197    2.238443   -1.257235
H     -2.650757    1.235128   -2.400565
H      5.429829    0.270258    0.915116
H      5.540978    0.317489   -0.885473
H      4.943506    1.765222    0.070420
H     -0.785270    0.534218    2.331498
H     -0.312808   -1.180097    2.357643
H     -1.996539   -0.823067    2.040736
H      3.126935   -1.205679   -1.833565
H      1.598258   -1.547805    1.798156
H      1.201683    0.169594    2.325294
H     -2.942877   -2.241868    0.922020
H     -2.670077   -3.069623   -0.617208
H      3.712614   -0.882642    1.895912
H      3.237081    0.868977    1.907521
H     -0.551113   -2.614167    0.604339
H     -0.642955   -1.997385   -1.108724
H     -1.709218    2.570074   -0.623231
H     -0.767658    2.077878    0.890697
H      2.976872    2.054244   -0.999379
H      1.184524   -1.124167   -0.443487
H      0.756782    3.066615   -0.844114
H     -1.140595    0.250024   -1.521608
H     -3.038936   -1.173599   -1.884998
H      0.019614    2.645732   -2.781436
H     -5.123253   -1.052130   -1.481441
