38

C     -2.150444    1.356114    0.098556
C      1.900910   -1.129972    1.487300
C      3.885553    1.229723   -1.240165
C      0.534913   -1.355240    1.335319
C      2.517692    0.995817   -1.385933
C     -2.415721   -0.983285    1.426052
C     -3.839531   -0.915969    0.845631
C     -0.247156    0.583907   -1.781672
C     -1.652205    0.026498   -1.963482
C      3.908057   -0.120603    0.728074
C      2.555229   -0.338203    0.564088
C      4.557795    0.665416   -0.182590
C      1.821381    0.202161   -0.481305
C      0.459261   -0.029088   -0.624078
C     -0.182043   -0.819714    0.303048
C     -1.601704   -1.068707    0.182525
C     -3.669108   -0.427309   -0.544889
C     -2.292395    0.043678   -0.635752
O      5.924141    0.889742   -0.023739
O     -4.501924   -0.423288   -1.416052
H     -2.190219    2.194109   -0.635539
H     -3.021114    1.492888    0.773491
H     -1.189180    1.398211    0.680667
H      2.478601   -1.547688    2.298697
H      4.431636    1.840052   -1.932311
H      0.092950   -1.991801    2.107389
H      2.003698    1.444711   -2.213314
H     -2.234512   -0.010799    1.908628
H     -2.307981   -1.842236    2.103430
H     -4.254423   -1.918153    0.922727
H     -4.473952   -0.240110    1.453578
H      0.357616    0.432309   -2.703641
H     -0.311855    1.675758   -1.596630
H     -2.144690    0.621015   -2.740127
H     -1.507635   -1.042174   -2.271684
H      4.446448   -0.559011    1.555543
H     -1.855333   -2.036431   -0.320686
H      6.167240    1.707673    0.541045
