53

C      4.395157    1.763899   -1.244799
C     -3.466003    2.031102   -0.276874
C     -3.330967    0.314299    1.440524
C      4.288750   -1.216493    0.853398
C     -0.723472   -1.258094    1.274925
C      4.659345    0.563292   -0.761926
C      0.560393    1.671449    1.153557
C     -0.797346    1.874124    0.614460
C      1.585592   -1.555485   -0.497544
C     -2.749766   -1.611565   -1.009863
C      2.898724   -1.131353   -1.176851
C     -1.258188   -1.527209   -1.066529
C      2.677571    0.647051    0.545341
C      1.368213    0.664341    0.407478
C      0.735850   -0.310172   -0.481837
C     -1.401971    0.727883   -0.128638
C     -3.431619   -0.286765   -0.992732
C     -2.906787    0.642482    0.064931
C      3.617992   -0.287483   -0.125185
C     -0.676452   -0.555556   -0.038841
O     -4.800718   -0.475965   -0.927569
H      5.160570    2.352827   -1.696247
H      3.400279    2.211939   -1.210103
H     -2.862399    2.828160    0.158961
H     -3.549781    2.178731   -1.354388
H     -4.504230    2.144975    0.147156
H     -3.859613   -0.684022    1.407691
H     -2.552856    0.354236    2.212683
H     -4.143007    1.013351    1.806000
H      5.392270   -1.252643    0.638897
H      4.121055   -0.852685    1.886284
H      3.881566   -2.226077    0.724086
H     -1.718838   -1.762157    1.450771
H     -0.019083   -2.140082    1.187584
H     -0.401931   -0.704081    2.149023
H      5.662635    0.181368   -0.828731
H      0.549661    1.483989    2.254502
H      1.163468    2.628605    1.068787
H     -1.487473    2.087561    1.485082
H     -0.814400    2.818950    0.021915
H      1.133821   -2.407098   -1.014468
H      1.886555   -1.872555    0.522790
H     -3.082515   -2.154741   -1.918645
H     -3.108907   -2.243152   -0.148589
H      2.636465   -0.436722   -1.995839
H      3.487782   -1.996059   -1.476112
H     -0.887405   -1.343535   -2.075880
H     -0.877356   -2.543524   -0.762620
H      3.138866    1.382690    1.212783
H      0.677923    0.035367   -1.544068
H     -1.319521    1.014683   -1.226054
H     -3.236451    0.218483   -1.983097
H     -5.111448   -1.000562   -0.172716
