23

C     -1.264882   -1.425996    0.932114
C      3.065884    0.739634   -0.526948
C      2.091591    1.344629   -1.298454
C      2.689288   -0.272768    0.339769
C      0.768421    0.918957   -1.180310
C      1.381693   -0.686053    0.449628
C      0.406992   -0.086629   -0.316756
C     -1.926954    0.662940   -0.174638
C     -1.008792   -0.492963   -0.236273
N     -2.745449    0.892376   -1.140834
O     -1.945509    1.537831    0.912078
O     -1.293795   -1.212952   -1.396363
H     -2.383114   -1.487555    1.048472
H     -0.906055   -2.455771    0.710880
H     -0.869422   -1.048504    1.879362
H      4.082420    1.049951   -0.602110
H      2.372007    2.138600   -1.981314
H      3.471109   -0.731000    0.933404
H      0.003487    1.401342   -1.792944
H      1.168242   -1.484062    1.150438
H     -2.804655    0.305861   -1.979601
H     -2.498020    2.391004    0.899369
H     -1.854488   -1.998874   -1.237100
