39

C      3.009507    0.999028    0.192068
C      2.725695   -0.937495   -1.112169
C      4.285648    0.575057    0.500955
C      4.000084   -1.364220   -0.805735
C     -1.807520   -0.879828    1.876641
C     -0.770485   -1.791339    1.318190
C      0.810539    0.671080   -0.984114
C     -3.753386    0.193741    0.655744
C     -2.002980    1.202263   -1.213569
C      2.197659    0.244715   -0.627454
C     -2.396019   -0.071000    0.778586
C      4.806682   -0.609408    0.011763
C     -1.531639    0.441071   -0.165665
C     -0.107830    0.104758    0.048918
C     -4.252891    0.958709   -0.392169
C     -3.365854    1.467102   -1.335408
N     -0.021475   -1.309780    0.208416
O      6.102010   -1.026354    0.333452
O     -5.617981    1.218132   -0.505463
O     -3.886440    2.221973   -2.363848
Cl     0.686197    0.000000    0.000000
H      2.634816    1.936295    0.595852
H      2.142174   -1.574715   -1.759055
H      4.923442    1.184905    1.155288
H      4.376386   -2.295362   -1.205086
H     -1.441557   -0.246336    2.710192
H     -2.615770   -1.516639    2.332599
H     -1.284462   -2.737789    0.985184
H     -0.064168   -2.119469    2.133159
H      0.779671    1.784288   -0.889180
H      0.548498    0.430511   -2.013994
H     -4.418936   -0.221597    1.414373
H     -1.329934    1.605643   -1.955769
H      0.190721    0.564199    1.033174
H     -0.183621   -1.825148   -0.688556
H      6.862227   -0.737655   -0.265979
H     -6.234080    0.832391    0.198701
H     -3.308727    2.628272   -3.091102
H     -0.686197    0.000000    0.000000
