23

C     -1.538037   -1.749142    0.111495
C      2.876685    0.646269   -0.852097
C      2.440315   -0.643954   -1.018343
C      2.061869    1.572223   -0.235207
C      1.187269   -0.999343   -0.564414
C      0.803910    1.183293    0.211562
C      0.338860   -0.108107    0.057639
C     -1.927525    0.635565    0.130105
C     -0.991168   -0.450688    0.548978
N     -2.488709    1.424849    0.982430
O     -2.243476    0.851853   -1.210295
O     -0.947469   -0.436381    1.950621
H     -1.967204   -1.710515   -0.924896
H     -2.427254   -1.984286    0.766492
H     -0.879697   -2.610905    0.175259
H      3.861899    0.953263   -1.201333
H      3.045763   -1.382313   -1.490701
H      2.446328    2.577176   -0.125377
H      0.858890   -1.998130   -0.697281
H      0.207544    1.930162    0.682295
H     -2.275153    1.292015    1.994902
H     -2.343924    1.789855   -1.586804
H     -0.099717   -0.782759    2.294971
