53

C      8.098167    0.559605    1.127388
C     -6.784563   -1.058750    1.676186
C     -6.084182    1.508012    0.409559
C      6.944133    1.505748    0.942732
C     -5.387976   -0.479774    1.719543
C      5.633570    0.745262    0.723147
C      4.572518    1.778484    0.554946
C      3.200000    1.236093    0.328183
C      3.039498    0.385524   -0.882371
C      1.561613   -0.051357   -0.900415
C      1.255202   -0.912018   -2.068591
C     -0.214550   -1.295076   -2.043062
C     -0.548230   -2.064111   -0.789961
C     -1.985322   -2.465730   -0.750406
C     -5.134322   -0.439574   -0.766732
C     -5.098121    0.363750    0.489776
C     -2.886200   -1.305508   -0.718395
O     -2.423120   -0.151092   -0.619265
O     -4.266499   -1.517265   -0.800779
H      8.261712    0.006722    0.205188
H      7.893208   -0.124720    1.977293
H      8.996669    1.181354    1.313610
H     -7.108688   -1.333528    2.699121
H     -6.697890   -2.036090    1.120202
H     -7.499608   -0.459317    1.112015
H     -5.529850    2.447589    0.481768
H     -6.665718    1.394880   -0.514247
H     -6.782798    1.440900    1.272001
H      7.122725    2.111520    0.027833
H      6.786524    2.200085    1.772146
H     -4.617205   -1.271129    1.805012
H     -5.268432    0.184800    2.599740
H      5.495555    0.116063    1.625746
H      5.733328    0.061969   -0.139688
H      4.541497    2.393445    1.475644
H      4.893120    2.467506   -0.255613
H      2.826037    0.694681    1.210085
H      2.518528    2.124380    0.203672
H      3.319529    0.850350   -1.825016
H      3.607203   -0.572761   -0.700363
H      0.896538    0.826436   -0.826466
H      1.449706   -0.627682    0.064901
H      1.853332   -1.829843   -2.133859
H      1.408682   -0.325187   -3.001039
H     -0.833617   -0.385375   -2.160573
H     -0.461164   -1.918927   -2.946122
H      0.142696   -2.938739   -0.693755
H     -0.364498   -1.414936    0.102451
H     -2.146551   -3.088444    0.172054
H     -2.174275   -3.084545   -1.667670
H     -6.177072   -0.728772   -1.045408
H     -4.824664    0.259492   -1.597795
H     -4.086177    0.776016    0.635645
