55

C     -1.610949    0.004601   -2.373487
C      2.633179    2.272447    1.044695
C     -5.489731   -0.745285    0.529091
C     -3.204218   -1.149157    1.577995
C      4.044887    0.407250   -1.288615
C      5.344878   -1.256314   -0.005644
C     -4.039295    1.034051   -0.955724
C      3.039593   -1.495904    1.404392
C     -2.414216    1.506966    0.836630
C      1.570858   -0.975756   -0.486993
C     -1.973954   -0.250262   -0.904890
C      2.310775    0.801119    1.130270
C     -3.831858    1.105190    0.564143
C      2.895425   -1.550489   -0.124321
C     -3.459987   -0.383379   -0.841253
C      3.535537   -0.059024    1.169451
C     -1.427233    0.881664   -0.100643
C      1.303519    0.367655    0.095398
C     -3.998307   -0.397337    0.569487
C      4.014380   -0.529398   -0.154048
B     -0.176009    0.358475    0.707822
H     -2.463205   -0.252622   -3.042987
H     -0.737812   -0.573563   -2.684990
H     -1.464581    1.112886   -2.515123
H      2.286417    2.847004    1.930502
H      3.743570    2.458774    1.000891
H      2.109354    2.729364    0.171894
H     -6.104239    0.124903    0.253255
H     -5.582934   -1.553407   -0.239655
H     -5.795759   -1.164243    1.503438
H     -2.903998   -0.539016    2.458474
H     -3.878753   -1.947591    2.004241
H     -2.338840   -1.701110    1.161666
H      3.603224    1.387874   -1.141844
H      5.103438    0.589505   -1.639361
H      3.562614   -0.100833   -2.174819
H      6.013325   -1.085431   -0.854352
H      5.231388   -2.334170    0.131112
H      5.871327   -0.849875    0.896451
H     -5.090608    1.038880   -1.270202
H     -3.385575    1.748225   -1.455372
H      3.865588   -2.152541    1.699362
H      2.098959   -1.562237    1.949900
H     -2.388692    2.633232    0.798414
H     -2.132812    1.263637    1.893462
H      1.499835   -0.983367   -1.612468
H      0.788413   -1.722348   -0.165841
H     -1.508977   -1.207080   -0.637091
H      1.800872    0.655808    2.129778
H     -4.566686    1.687577    1.106529
H      3.095987   -2.514009   -0.575661
H     -3.864325   -1.108452   -1.536377
H      4.256002    0.300588    1.893985
H     -1.041533    1.714755   -0.758852
H      1.251742    1.111773   -0.752526
