31

C     -2.299788    0.914666   -0.218763
C     -2.592426   -1.356158   -0.832606
C     -3.645036    1.125364   -0.482414
C     -3.946956   -1.138655   -1.096791
C      4.120855    0.961812   -0.851409
C      2.797129    0.887092   -1.219675
C      3.529659    0.197224    1.313358
C     -0.165662   -0.791884    1.354444
C     -1.769206   -0.346185   -0.397686
C     -4.481735    0.120251   -0.919316
C      4.500922    0.614899    0.427732
C      2.192215    0.123030    0.937125
C      1.149295   -0.308717    1.834713
C      1.821099    0.475266   -0.354867
C     -0.337640   -0.623939   -0.129226
O     -5.840978    0.372394   -1.176279
O      5.816442    0.671139    0.851109
O      1.351200   -0.278633    3.070240
O      0.490378    0.383359   -0.671577
H     -1.648667    1.689823    0.119547
H     -2.243455   -2.365024   -0.993426
H     -4.062655    2.120113   -0.341023
H     -4.597903   -1.923640   -1.437420
H      4.864682    1.286899   -1.546263
H      2.500764    1.162234   -2.231871
H      3.780311   -0.085822    2.329805
H     -0.202430   -1.891175    1.613159
H     -1.014440   -0.333320    1.911901
H     -0.072719   -1.561881   -0.652101
H     -6.536948    0.269245   -0.452573
H      6.543696    0.966877    0.242152
