24

C     -0.463606   -1.052396   -1.196410
C     -3.117967   -0.023658   -0.356295
C      1.840507    1.274245   -0.694103
C      1.838415   -0.467778    0.908744
C      3.185934    1.476302   -0.480550
C      3.186574   -0.223607    1.084341
C     -0.290966    0.128899   -0.272838
C     -2.328199   -0.079418    0.900961
C      1.140902    0.303802   -0.008601
N      3.844221    0.731301    0.400678
N     -1.041104   -0.010774    0.949102
O     -3.003483   -0.212411    2.091987
H      0.522150   -1.571876   -1.383108
H     -1.125497   -1.834947   -0.788176
H     -0.809401   -0.741298   -2.204802
H     -3.397654   -1.087681   -0.596805
H     -2.609612    0.471243   -1.181748
H     -4.083149    0.505821   -0.109155
H      1.300294    1.890526   -1.421790
H      1.307252   -1.247868    1.469055
H      3.709498    2.244853   -1.032500
H      3.705409   -0.833123    1.799448
H     -0.686868    1.025288   -0.792493
H     -2.623654   -0.665442    2.915058
