38

C     -0.169891    1.406077   -1.738829
C     -4.004035   -0.683003    0.047299
C      5.303364   -0.157564    0.465923
C     -3.019864   -1.747701    0.536304
C     -3.595188   -0.212581   -1.329478
C      4.918783    0.231388    1.729164
C      4.373422   -0.204265   -0.551200
C     -1.721038   -1.007121    0.771246
C     -2.184407   -0.598957   -1.677381
C      3.617455    0.567453    1.961381
C      3.051239    0.144002   -0.286909
C     -0.676325    0.924277   -0.371845
C     -1.221961   -0.515428   -0.546263
C      2.667758    0.533466    0.979448
C      1.258883    0.902700    1.258423
N      0.353968    0.913086    0.497326
O      1.021849    1.280304    2.613749
H      0.623956    2.132979   -1.540626
H      0.141385    0.523263   -2.302904
H     -0.961939    1.919606   -2.299140
H     -5.048145   -1.020885    0.104627
H     -3.890941    0.176706    0.740247
H      6.343189   -0.415759    0.323062
H     -3.448093   -2.171748    1.465153
H     -2.927332   -2.492759   -0.277834
H     -3.794683    0.871949   -1.453393
H     -4.266300   -0.732918   -2.049186
H      5.682275    0.261154    2.529141
H      4.708327   -0.513163   -1.528467
H     -1.024174   -1.723902    1.254391
H     -1.946255   -0.136072    1.438966
H     -1.860796    0.075873   -2.495681
H     -2.195113   -1.621024   -2.117191
H      3.323824    0.872834    2.960212
H      2.339017    0.100925   -1.096005
H     -1.565672    1.562316   -0.075333
H     -0.321391   -1.112372   -0.810173
H      0.114848    1.666867    2.871776
