28

C      3.665621    0.554794    0.780505
C      3.739723    0.448088   -0.596823
C      2.460359    0.411566    1.434514
C      2.558611    0.191533   -1.300854
C     -3.195466    0.049815   -0.244952
C     -2.499960   -0.452989    1.003280
C      0.041137    0.015181    1.481863
C      1.302659    0.158176    0.722064
C      1.360590    0.049899   -0.642254
C     -2.327235   -0.621066   -1.319349
C     -0.976727   -0.350421   -0.782116
N      0.163556   -0.210239   -1.352207
N     -1.090057   -0.248040    0.629470
O     -2.550259   -0.106168   -2.567913
I      0.865945    0.000000    0.000000
H      4.601471    0.754686    1.299285
H      4.684168    0.560222   -1.110581
H      2.408322    0.495704    2.508636
H      2.631630    0.110581   -2.377385
H     -3.027923    1.143953   -0.294334
H     -4.239697   -0.246496   -0.312993
H     -2.759538    0.105920    1.905350
H     -2.728718   -1.543644    1.071991
H      0.126455   -0.814339    2.215428
H     -0.134586    0.948587    2.051011
H     -2.491972   -1.713567   -1.248928
H     -1.722163    0.308262   -2.952707
H     -0.865945    0.000000    0.000000
