58

C     -5.331799    1.214826    1.577615
C      2.363480    1.169465    0.895892
C     -1.823952    2.045967    0.569649
C      2.006611    0.218664   -2.395599
C      0.546793   -0.055096   -2.389912
C      4.364575   -0.819535    0.773841
C      0.153481   -0.444325    1.366050
C      2.954524   -1.249038    0.594170
C     -1.278116   -0.156395    1.528476
C      4.171453    0.492442   -1.380614
C     -1.934113   -1.323622   -0.964651
C     -4.172265    0.283856    1.499840
C      2.728277    0.210681   -1.286559
C      5.019112   -0.161060   -0.364954
C      0.709181   -0.499288    0.002722
C     -0.003044    0.288612   -1.043121
C     -3.324425   -1.198247   -0.322335
C      2.172182   -0.066104    0.065242
C     -1.946678    0.568195    0.400795
C     -1.458870    0.081175   -0.959748
C     -3.422557    0.167914    0.256431
O     -3.901476   -0.349503    2.502841
O      5.942316    0.782684    0.147098
O     -3.579074   -2.225418    0.559870
O     -2.151521    0.793904   -1.933680
O     -3.950260    1.011207   -0.742859
H     -5.445242    1.817244    0.650074
H     -5.215654    1.952076    2.403831
H     -6.297885    0.650152    1.687489
H      1.497416    1.845487    0.908009
H      3.213282    1.781832    0.472192
H      2.671086    0.956427    1.942729
H     -1.596872    2.524412   -0.421011
H     -1.047228    2.346492    1.307609
H     -2.790175    2.469726    0.944253
H      2.482690    0.433055   -3.368079
H      0.047000    0.497096   -3.207414
H      0.445746   -1.167072   -2.558978
H      4.395830   -0.152059    1.685376
H      4.946017   -1.732034    1.103111
H      0.744568    0.288843    1.989413
H      0.370057   -1.437719    1.862222
H      2.551525   -1.585607    1.555508
H      2.925496   -2.047670   -0.181848
H     -1.856211   -1.115984    1.681993
H     -1.468004    0.432983    2.451244
H      4.508725    0.246996   -2.409061
H      4.277602    1.615957   -1.309722
H     -1.997960   -1.751143   -1.982049
H     -1.372523   -2.001618   -0.298990
H      5.676148   -0.924078   -0.879372
H      0.755863   -1.564949   -0.373506
H      0.194781    1.385687   -0.882454
H     -4.053675   -1.312587   -1.167360
H      6.050933    0.679544    1.126674
H     -2.879430   -2.943462    0.506893
H     -2.161862    0.240701   -2.759965
H     -4.425878    0.467128   -1.435313
