28

C      3.804650   -0.312484   -0.047941
C      3.692195    1.050932   -0.177050
C      2.719072   -1.127951    0.035339
C      2.433145    1.586777   -0.221514
C     -3.093893   -0.064672    0.625598
C     -2.340394   -1.204895   -0.003468
C      0.247958   -1.453234    0.085172
C      1.442587   -0.592301   -0.008910
C      1.290972    0.769835   -0.137905
C     -2.528305    1.103254   -0.168497
C     -1.065330    0.704885   -0.131980
N      0.014925    1.392372   -0.196459
N     -0.979282   -0.703956   -0.009136
O     -2.983639    1.146343   -1.461921
I      0.866095    0.000000    0.000000
H      4.814082   -0.728491   -0.013673
H      4.571690    1.688139   -0.242204
H      2.795668   -2.203888    0.137288
H      2.296691    2.667268   -0.323592
H     -2.717115    0.049608    1.657352
H     -4.174217   -0.150636    0.545250
H     -2.459759   -2.119142    0.603588
H     -2.661145   -1.424412   -1.035205
H      0.321462   -2.235869   -0.696877
H      0.268257   -1.993142    1.072729
H     -2.693736    2.067268    0.319658
H     -3.016538    2.088393   -1.754187
H     -0.866095    0.000000    0.000000
