66

C      4.646686    0.153918   -0.255135
C      4.265888    0.434420    1.132040
C      5.949624    0.879774   -0.653605
C      3.120708   -0.296955    1.681703
C      7.110129    0.470320    0.192097
C      1.823358   -0.200685    1.024247
C      7.418893   -0.990456    0.120874
C     -3.430951    0.793060   -0.417851
C     -2.975385    1.246928    0.955501
C      1.692041   -0.849231   -0.301125
C     -4.862065    1.169477   -0.710901
C     -1.520236    0.837536    1.188429
C      7.761107   -1.506624   -1.233684
C      0.217040   -0.596896   -0.731614
C     -7.578339   -1.553007    0.161404
C     -8.086545   -0.211280    0.588648
C     -5.767380    0.531266    0.310713
C     -1.382037   -0.631906    1.098107
C      8.935422   -0.921819   -1.870861
C     -7.201529    0.865223    0.067606
C     -9.016787    0.663746   -1.265139
N     -0.620347   -1.186015    0.252714
N     -9.299237    0.015296   -0.183728
N     -7.602890    0.923503   -1.305225
O     -2.115493   -1.415578    1.973113
O      9.215960   -1.279167   -3.039089
O      9.734731    0.000060   -1.231945
O     -9.970725    1.036488   -2.224048
S     -5.768097   -1.269026    0.057621
H      3.897798    0.743422   -0.904356
H      4.627868   -0.872416   -0.550523
H      5.127123    0.264601    1.859398
H      4.068365    1.550779    1.279488
H      6.139461    0.595365   -1.700621
H      5.788648    1.955330   -0.583085
H      2.986448   -0.053089    2.804827
H      3.417235   -1.422368    1.752794
H      7.985021    1.052007   -0.165523
H      6.982669    0.762336    1.254816
H      1.521692    0.895091    0.868952
H      0.998552   -0.548775    1.723620
H      8.285840   -1.170022    0.815144
H      6.561060   -1.611208    0.493349
H     -2.812144    1.237055   -1.221452
H     -3.326538   -0.330656   -0.405090
H     -3.547306    0.783728    1.761399
H     -3.031035    2.335966    1.045221
H      1.728584   -1.961840   -0.112175
H      2.325784   -0.538086   -1.091620
H     -5.075200    0.808394   -1.734694
H     -4.912618    2.280294   -0.672089
H     -0.826127    1.414368    0.582611
H     -1.331100    1.131306    2.264213
H      6.847188   -1.342498   -1.878873
H      7.849812   -2.617082   -1.148101
H      0.062490   -1.147030   -1.698066
H      0.075989    0.456900   -0.946739
H     -7.694423   -2.317865    0.979491
H     -7.970660   -1.899244   -0.797746
H     -8.278505   -0.145371    1.678437
H     -5.521940    0.804161    1.335680
H     -7.518974    1.810069    0.557423
H     -7.096614    1.099721   -2.191904
H     -2.483457   -2.331011    1.681351
H     10.383847    0.542308   -1.755678
H    -10.928378    0.672991   -2.109881
