76

C     -3.200369    0.998947   -1.948224
C     -2.028888    0.911044   -1.032919
C     -4.509274    0.494357   -1.509697
C     -1.464601   -0.435373   -0.769152
C     -4.655465   -0.911584   -1.082993
C     -0.450097   -0.587584    0.275179
C     -6.143206   -1.200720   -0.825783
C      6.304773   -0.014029    0.017797
C      5.184917    0.731447    0.701997
C      0.846382    0.047906    0.314567
C      7.010505   -0.932302    0.994724
C      4.438553    1.614872   -0.254732
C     -6.742880   -0.327363    0.222647
C    -12.789362   -0.945215   -0.022388
C    -12.796685    0.366181    0.703765
C      0.973437    1.546880    0.456263
C     10.778754   -1.962535    0.984918
C     10.491958   -1.202082   -0.289285
C      8.137929   -1.619538    0.263054
C      3.353026    2.337042    0.533606
C    -11.373121   -1.153684   -0.367348
C    -11.422237    0.473934    1.211152
C     -8.180672   -0.776107    0.365043
C      9.122590   -0.649075   -0.258020
C     10.630819    0.948774    0.277609
N      2.248143    2.003058    0.522668
N     11.315746   -0.012644   -0.213575
N      9.293333    0.520980    0.581083
N    -10.541368   -0.210601    0.289378
O      3.846361    3.448284    1.277034
O    -10.874249   -2.039360   -1.146550
O    -11.070156    1.059788    2.263421
O     -8.390019   -1.974150    0.655474
O     11.161407    2.231313    0.470687
O     -9.219577    0.091657    0.184689
S      9.126659   -2.646521    1.381673
H     -2.966503    0.491515   -2.937378
H     -3.281026    2.087772   -2.265306
H     -2.261918    1.450610   -0.098317
H     -1.217134    1.505034   -1.594921
H     -5.276493    0.725054   -2.324874
H     -4.922110    1.169704   -0.664611
H     -2.232143   -1.224022   -0.767625
H     -0.874650   -0.751527   -1.765288
H     -4.153702   -1.025779   -0.073213
H     -4.319513   -1.610431   -1.842703
H     -0.262954   -1.735815    0.337232
H     -0.984656   -0.469236    1.307855
H     -6.235916   -2.260935   -0.617203
H     -6.662344   -0.998476   -1.787141
H      5.837194   -0.623548   -0.801541
H      6.990233    0.693346   -0.460127
H      5.589150    1.324071    1.557314
H      4.439880    0.013905    1.124312
H      1.429856   -0.273591   -0.615598
H      1.465351   -0.452395    1.133921
H      6.296849   -1.729429    1.303831
H      7.325825   -0.374570    1.871440
H      3.927321    1.079782   -1.054758
H      5.142862    2.363915   -0.680352
H     -6.745208    0.736062   -0.129406
H     -6.266896   -0.415266    1.211131
H    -13.334295   -0.862563   -1.013754
H    -13.225408   -1.775995    0.583335
H    -13.559697    0.408063    1.511214
H    -13.020348    1.177316   -0.035830
H      0.415279    2.026567   -0.381146
H      0.412903    1.835285    1.417292
H     11.182368   -1.339091    1.800512
H     11.432099   -2.833291    0.749564
H     10.729264   -1.803575   -1.194480
H      7.796074   -2.249765   -0.559944
H      8.866947   -0.326340   -1.289484
H      8.690456    1.008657    1.248150
H      3.261347    3.912722    1.963937
H     12.158593    2.383633    0.606198
