98

C     -9.264600    0.716328   -0.375771
C     -9.125950    2.214374   -0.565046
C    -10.556906    0.186422   -0.938990
C     -7.805295    2.643313    0.056684
C     14.446683   -0.990375   -1.334559
C     -5.315482    0.157957    0.592341
C     13.366615   -1.641985   -0.483732
C     -4.848857   -0.939230   -0.371134
C     11.303811   -1.235563    0.459074
C     -2.947826   -1.572923    0.759774
C     10.257224   -0.143050    0.596632
C     -1.849129   -1.154140   -0.137385
C      8.462487   -1.573424    0.917098
C     -2.015529    1.165280   -0.567375
C      7.717701   -1.369475   -0.379579
C     -0.986336    1.675476    0.396547
C      6.566866    0.791324   -0.531539
C      1.105644    2.145722    0.965285
C      6.974229    1.633475    0.644432
C      2.593565    2.075719    0.676236
C      5.223341    3.153783    0.483555
C      4.566458    2.554735    1.682452
C    -11.844791   -3.643000   -0.559926
C    -11.627914   -2.961379    0.772477
C    -10.652929   -1.254364   -0.710973
C     -6.641229    1.930263   -0.620804
C     15.545919   -1.951648   -1.507013
C    -10.688872   -1.811840    0.647229
C    -12.644696   -1.239520    1.744968
N     -6.027300    1.102645   -0.044741
N    -12.833039   -2.410448    1.293289
N    -11.260804   -0.861595    1.576446
O     -6.335259    2.296023   -1.948622
O     15.432277   -2.894779   -2.312505
O     16.706636   -1.813707   -0.779060
O    -13.619770   -0.438571    2.315243
O     12.340637   -0.704023   -0.329858
O     -4.139952   -1.915082    0.231678
O      9.188767   -0.536336    1.359561
O     -1.893967   -0.113739   -0.947119
O      6.815444   -0.471207   -0.510320
O      0.323974    1.604246   -0.054504
O      6.616787    2.978728    0.539242
O      3.212094    2.657874    1.774223
S    -12.043441   -2.092346   -1.572195
H     -9.177635    0.435111    0.675444
H     -8.460040    0.233470   -1.001127
H     -9.912642    2.682388    0.059028
H     -9.226267    2.526613   -1.598733
H    -10.566036    0.449400   -2.036862
H    -11.373615    0.792715   -0.486097
H     -7.667223    3.733288   -0.084020
H     -7.776419    2.453214    1.133984
H     14.051824   -0.718538   -2.335655
H     14.764544   -0.048381   -0.852296
H     -5.983999   -0.432174    1.317968
H     -4.487496    0.496358    1.267381
H     13.009134   -2.581963   -0.920058
H     13.772668   -1.793546    0.555078
H     -5.791080   -1.350128   -0.825758
H     -4.310078   -0.389038   -1.197575
H     10.903749   -2.083375   -0.151544
H     11.732006   -1.529356    1.416178
H     -3.124889   -0.841088    1.602080
H     -2.555667   -2.538509    1.279721
H     10.731688    0.742649    1.068189
H      9.992729    0.166040   -0.429543
H     -0.853142   -1.210478    0.455695
H     -1.674340   -2.075497   -0.819673
H      9.143266   -2.468727    0.767567
H      7.753766   -1.936585    1.704324
H     -1.829644    1.785650   -1.520402
H     -2.996028    1.534909   -0.238680
H      7.251283   -2.404483   -0.573374
H      8.522358   -1.384150   -1.207448
H     -1.035716    1.148748    1.387021
H     -1.203417    2.740718    0.610758
H      7.047453    1.242325   -1.486096
H      5.467368    0.991601   -0.780281
H      0.830880    3.176482    1.234223
H      0.944397    1.516037    1.891912
H      6.784399    1.189296    1.626435
H      8.111467    1.695899    0.558664
H      2.926647    1.048161    0.491935
H      2.813658    2.755220   -0.199713
H      4.788050    2.861614   -0.483088
H      5.080953    4.270330    0.542530
H      4.986622    2.951255    2.638547
H      4.778270    1.438403    1.614678
H    -12.767678   -4.212266   -0.529255
H    -10.931496   -4.158003   -0.844385
H    -11.146568   -3.734526    1.430194
H     -9.734092   -1.737875   -1.225795
H     -9.673108   -2.045950    1.061061
H    -10.856492   -0.043421    2.086388
H     -5.781478    1.658100   -2.535966
H     17.528805   -2.373311   -0.878407
H    -14.618985   -0.574564    2.164909
