76

C     -6.762786   -2.136835    1.527290
C     -5.425662   -2.486404    2.030045
C     -6.800780   -1.101633    0.463938
C     -4.424832   -3.098695    1.146161
C     -2.741017   -0.730014    1.219034
C     11.517585    0.702501    1.153211
C     -1.331707   -0.169278    0.971214
C     10.265237    1.435117    1.491173
C     -0.247880    1.332817   -0.342139
C      9.409212    1.687906   -0.663839
C      0.837615    0.401189   -0.770906
C      8.347238    0.621869   -0.579703
C      3.038954    0.394750   -1.480420
C      6.189459    0.163220    0.021279
C      3.474761   -0.628826   -0.474676
C      4.945220    0.798216    0.599292
C     -9.351103    1.637895    0.625907
C     -9.280826    1.247540   -0.833096
C     -8.230428   -0.804314    0.016822
C     -3.959859   -2.411404   -0.037798
C     -8.229781    0.225456   -1.037792
C     -7.496629    2.255859   -1.708176
N     11.212947   -2.570681    0.138820
N     -3.216896   -1.366519    0.033461
N     11.447828   -0.173225    0.030880
N     -8.757916    2.407569   -1.515114
N     -7.053434    1.012317   -1.191594
N     11.606510   -1.388572    0.114009
O     -4.267483   -2.815666   -1.358303
O     -6.650258    3.171225   -2.336691
O     -1.441350    0.730771   -0.053116
O      9.760790    2.259014    0.526348
O      1.983923    1.158233   -1.042887
O      7.171848    1.152844   -0.046114
O      3.882967   -0.067784    0.725211
S     -9.055183    0.011135    1.423058
H     -7.233326   -3.090823    1.121812
H     -7.468792   -1.845224    2.349333
H     -5.596423   -3.237136    2.880314
H     -4.952128   -1.588424    2.552066
H     -6.353472   -0.128181    0.817949
H     -6.219647   -1.420035   -0.404977
H     -3.489396   -3.333528    1.762959
H     -4.740775   -4.162524    0.850909
H     -2.639027   -1.476593    2.044888
H     -3.435334    0.081907    1.496523
H     12.318059    1.455304    0.945289
H     11.851492    0.138718    2.050911
H     -0.677173   -1.013072    0.636834
H     -1.007541    0.288278    1.910002
H      9.524856    0.715280    1.901236
H     10.523487    2.101190    2.369294
H      0.134811    1.961063    0.510453
H     -0.420774    2.068955   -1.171520
H      8.929332    2.519175   -1.271545
H     10.240105    1.345128   -1.304412
H      1.039560   -0.288188    0.100004
H      0.594761   -0.221542   -1.636345
H      8.096349    0.352976   -1.639161
H      8.661345   -0.298578   -0.081628
H      2.711911   -0.164238   -2.405610
H      3.905468    1.044478   -1.748098
H      6.005895   -0.183791   -1.019528
H      6.536381   -0.621373    0.691127
H      4.296639   -1.274857   -0.912364
H      2.665378   -1.351429   -0.261748
H      4.657678    1.714345    0.036132
H      5.209957    1.118054    1.643675
H     -8.600487    2.369802    0.918042
H    -10.389906    1.913416    0.854585
H    -10.277842    0.961603   -1.232314
H     -8.757910   -1.724210   -0.272157
H     -8.490489   -0.301031   -2.004562
H     -6.083282    0.758751   -0.983438
H     -4.379801   -2.076721   -2.060770
H     -7.056229    4.035484   -2.715471
