78

C     -6.110896   -0.608970   -0.025434
C     -5.411032    0.093694   -1.145961
C     -7.243447   -1.485359   -0.516718
C     -4.284172    0.981427   -0.738047
C     11.265545   -3.368140   -0.920710
C     10.195659   -3.969502   -1.412177
C      8.399940    0.092808   -0.941298
C     -0.976889   -0.506524    0.228900
C      6.120578    2.024798    1.299019
C      8.556046   -0.991625    0.091614
C      0.017511   -1.155346   -0.717314
C      5.293638    1.339702    2.368567
C      1.410971    0.704929   -0.837839
C      3.438497    2.768717    2.284313
C      2.471982    0.086186    0.000743
C      2.511779    1.790783    1.550797
C    -11.045380   -0.599995   -1.280293
C    -10.293496    0.667832   -0.943050
C     -8.297848   -0.721049   -1.250536
C     -3.186149    0.276502   -0.028497
C      7.501756    1.149550   -0.419170
C     10.843648   -2.144134   -0.269012
C      8.993313   -3.175377   -1.113814
C     -8.941345    0.331964   -0.432414
C    -10.339477    0.817032    1.267417
N     -1.997438    0.192681   -0.510541
N      7.002200    1.015526    0.752435
N    -10.957042    1.212267    0.215416
N     -9.232766   -0.004603    0.927095
N      9.431039   -2.039325   -0.397744
O     -3.440787   -0.315710    1.197707
O      7.182167    2.284145   -1.158965
O     11.560023   -1.294928    0.318310
O      7.817629   -3.504241   -1.461953
O    -10.686716    1.136991    2.599754
O      0.660273   -0.260442   -1.530925
O      4.397052    2.143385    2.999045
O      3.214146    1.016560    0.669785
S     -9.710850   -1.766861   -1.704246
H     -6.429878    0.076148    0.780907
H     -5.385193   -1.317472    0.468663
H     -6.150422    0.625117   -1.788928
H     -4.962973   -0.675385   -1.842339
H     -7.704555   -1.949676    0.377853
H     -6.817406   -2.317858   -1.104893
H     -3.846329    1.388260   -1.694256
H     -4.605798    1.824883   -0.083812
H     12.290766   -3.756957   -1.007791
H     10.189658   -4.911237   -1.958051
H      7.915221   -0.363664   -1.829761
H      9.378629    0.538846   -1.192037
H     -1.483206   -1.325149    0.819974
H     -0.514157    0.165778    0.950249
H      6.687556    2.852222    1.775682
H      5.540016    2.454801    0.484338
H      7.594457   -1.456110    0.352508
H      8.969367   -0.525214    1.017291
H      0.706782   -1.827548   -0.160141
H     -0.578480   -1.822390   -1.375643
H      6.066071    1.051224    3.158745
H      4.938197    0.373583    1.996089
H      1.907441    1.325457   -1.611844
H      0.731703    1.380690   -0.273936
H      3.795204    3.553827    1.588976
H      2.784443    3.324542    3.018725
H      3.131509   -0.514900   -0.702365
H      2.063782   -0.612104    0.773006
H      1.976624    1.167725    2.320763
H      1.688763    2.384634    1.057854
H    -11.655489   -0.972309   -0.439997
H    -11.628378   -0.402730   -2.202781
H    -10.291627    1.391501   -1.784331
H     -7.936949   -0.262338   -2.190482
H     -8.333858    1.267246   -0.486553
H     -8.772527   -0.676686    1.543733
H     -2.756441   -0.262041    1.969570
H      7.032040    3.192894   -0.695373
H    -11.664225    1.397041    2.795477
