83

C      6.979193   -1.193762    0.556283
C      6.076682   -0.151324    1.121142
C      8.065299   -1.626751    1.479435
C      5.030419    0.277026    0.132129
C    -11.086359   -1.738159    1.819180
C      2.132249    0.287540    0.562782
C    -11.057639   -0.318495    1.364661
C      1.732878    1.363436   -0.419000
C     -9.312283   -0.164049   -0.267207
C     -0.204364    1.998631    0.699049
C     -8.790954   -1.533601   -0.517267
C     -1.150073    1.340745   -0.294685
C     -6.532151   -0.995668   -0.212955
C     -2.106576    3.306723   -1.162544
C     -5.211254   -1.167322   -0.978840
C     -3.460160    3.425753   -0.610509
C     -5.501950    0.831861   -2.135443
C     -4.330385    1.465428   -1.379545
C     11.542543   -1.530071    1.633726
C     11.113926   -0.474929    0.722785
C      9.008697   -0.606867    1.969343
C      4.129485   -0.760628   -0.349919
C      9.802286    0.108195    0.994749
C      9.990136   -0.519505   -1.210478
N    -11.800041   -2.600628    0.923625
N      2.881301   -0.704649   -0.133926
N     11.041947   -0.975562   -0.632468
N      9.255633    0.320987   -0.320687
O      4.681712   -1.838220   -1.070723
O      9.571799   -0.779667   -2.533074
O    -10.539390    0.007510    0.198794
O      0.994442    2.392604    0.134575
O     -7.498539   -1.554326   -1.019219
O     -1.484619    2.145835   -1.331401
O     -5.281765   -0.521574   -2.186997
O     -4.487317    2.826486   -1.289026
S     10.287477   -1.526229    2.942637
H      7.297016   -1.048824   -0.486173
H      6.308840   -2.131612    0.474450
H      6.603829    0.773018    1.441687
H      5.633274   -0.571313    2.050257
H      8.653056   -2.420119    0.962899
H      7.639923   -2.148439    2.390007
H      5.559785    0.750558   -0.728329
H      4.481540    1.139832    0.610210
H    -10.126134   -2.164812    2.097441
H    -11.741548   -1.696099    2.787059
H      1.227621   -0.221677    0.975463
H      2.652996    0.778622    1.404071
H    -12.152112    0.010510    1.377983
H    -10.638566    0.296398    2.234990
H      1.289886    0.955045   -1.353596
H      2.688894    1.856387   -0.775530
H     -8.581462    0.305020    0.489415
H     -9.214205    0.470627   -1.212624
H     -0.693751    2.881970    1.187264
H      0.033433    1.317205    1.541680
H     -8.906006   -2.262149    0.289822
H     -9.426620   -1.954693   -1.367395
H     -1.980086    0.824600    0.227918
H     -0.560513    0.479945   -0.731310
H     -6.407070   -1.495284    0.758569
H     -6.693766    0.082225    0.009258
H     -1.452987    4.055112   -0.598365
H     -2.136620    3.808813   -2.188660
H     -4.334488   -0.951656   -0.359569
H     -5.165655   -2.265272   -1.203272
H     -3.559372    3.091115    0.452186
H     -3.763831    4.522990   -0.538380
H     -5.405038    1.219828   -3.179208
H     -6.472881    1.149968   -1.754988
H     -4.246444    1.068623   -0.367441
H     -3.438993    1.168613   -1.976154
H     11.519184   -2.538689    1.153331
H     12.533989   -1.318830    2.108167
H     11.917691    0.318968    0.690379
H      8.541453    0.057651    2.771362
H      9.977435    1.161715    1.396354
H    -12.392467   -3.264613    1.448072
H    -12.410629   -2.065201    0.261381
H      8.464428    0.979049   -0.602230
H      4.124296   -2.688670   -1.121956
H     10.270383   -1.133234   -3.204624
