83

C     -5.455754    1.145561    0.033606
C     -5.493217    2.598291    0.440344
C     -6.825397    0.672195   -0.402146
C     -4.075855    3.004360    0.864185
C     11.824018    1.384491    0.381389
C     -1.603042    1.365223    0.932315
C     10.474811    1.427931   -0.331136
C     -1.817648    0.040165    0.187204
C      9.201839    0.360555   -1.924860
C     -1.064773   -1.252208   -1.540432
C      7.995054    0.213028   -0.993418
C     -0.891979   -2.466322   -0.665711
C      7.106620   -1.224104    0.633098
C      1.377838   -2.607024   -0.999053
C      5.693928   -1.319907    0.104726
C      2.697841   -2.697168   -0.223169
C      4.002632   -0.145252   -0.985764
C      2.858881   -0.386707   -0.052356
C     -8.964735   -1.472088    1.826428
C     -9.898715   -0.494613    1.175630
C     -7.868135    0.788705    0.665838
C     -3.608239    2.199321    1.988189
C     -9.174147    0.310075    0.162002
C    -10.345698   -1.318832   -0.887598
N     11.870728    2.483029    1.307852
N     -2.549035    1.508010    1.992556
N    -10.790706   -1.293342    0.343031
N     -9.151994   -0.556806   -0.967197
O     -4.381035    2.180807    3.162067
O    -11.010354   -2.013008   -1.889859
O     10.402018    0.375427   -1.234331
O     -0.898953   -0.090073   -0.839138
O      8.062384   -0.953008   -0.276791
O      0.347395   -2.543506   -0.075457
O      5.248712   -0.172767   -0.476905
O      2.820743   -1.585809    0.571581
S     -7.443249   -0.458429    1.942358
H     -4.821946    1.109388   -0.898619
H     -4.998809    0.488831    0.775435
H     -5.742989    3.217223   -0.426550
H     -6.170886    2.754435    1.304120
H     -7.077849    1.200146   -1.336300
H     -6.700536   -0.418990   -0.653001
H     -3.442853    2.831696   -0.023707
H     -4.110439    4.104884    1.115346
H     12.614255    1.474830   -0.372966
H     11.893326    0.394013    0.862679
H     -1.564499    2.199945    0.216565
H     -0.575806    1.305838    1.403433
H      9.666517    1.361307    0.445385
H     10.393040    2.384098   -0.882419
H     -2.829338   -0.040469   -0.224359
H     -1.661530   -0.781396    0.931262
H      9.175775   -0.467906   -2.648582
H      9.057649    1.309483   -2.499069
H     -2.109485   -1.292681   -1.947255
H     -0.371595   -1.293387   -2.402516
H      7.832221    1.104819   -0.363866
H      7.088299    0.177374   -1.671760
H     -1.003065   -3.387362   -1.316628
H     -1.687942   -2.589224    0.091190
H      7.331685   -2.257918    1.046276
H      7.123908   -0.527745    1.513014
H      1.437498   -1.717571   -1.642401
H      1.293735   -3.547311   -1.622680
H      5.056863   -1.554819    1.004186
H      5.707340   -2.193473   -0.597012
H      3.473242   -2.777506   -1.010298
H      2.694466   -3.630712    0.409097
H      3.858852    0.880099   -1.456428
H      3.942033   -0.891698   -1.840314
H      2.922996    0.413779    0.749092
H      1.902823   -0.123929   -0.578247
H     -8.807311   -2.380969    1.231412
H     -9.326947   -1.669277    2.858309
H    -10.467255    0.109091    1.912313
H     -7.948794    1.787313    1.097873
H     -9.803087    1.206002   -0.053895
H     11.222284    3.223895    0.979631
H     11.555816    2.170939    2.252558
H     -8.430810   -0.626763   -1.696026
H     -4.353370    1.408791    3.818845
H    -11.910262   -2.433791   -1.802200
