52

C     -4.940562    0.256597   -1.326379
C     -5.270808   -1.932735   -0.368269
C      6.269376    1.163528    1.987399
C      4.306227   -1.341558   -2.549395
C      1.254061    1.856954    2.134272
C     -0.094891    1.234285    2.199337
C     -3.579292   -0.438076    0.697166
C      3.535661    1.149453    1.418864
C      2.549181   -0.070752   -0.796991
C     -0.296032   -0.406709   -1.117502
C     -1.220902   -0.717132    1.286551
C     -4.826696   -0.497974   -0.051158
C      2.179090    1.168831    1.180380
C     -2.290008   -0.902518    0.192752
C      1.671678    0.552312    0.059020
C      0.209068    0.613654   -0.130713
C     -1.848562   -0.257964   -1.071146
C      4.439929    0.533291    0.579628
C      3.910547   -0.081876   -0.543894
N     -0.428617    0.417140    1.117731
O     -2.369720   -0.807334   -2.232678
O      5.807721    0.508042    0.810648
O      4.809267   -0.706443   -1.398155
H      5.897596    2.225946    1.944454
H      5.765343    0.683655    2.832749
H      7.358852    1.189772    2.058350
H      4.011028   -0.620485   -3.335932
H      5.069638   -2.016751   -3.016518
H      3.442202   -2.021236   -2.314515
H     -4.976495   -0.433521   -2.206852
H     -4.194814    1.042837   -1.381543
H     -5.942767    0.812184   -1.300894
H     -6.290415   -1.833010   -0.796408
H     -5.356691   -2.539995    0.539922
H     -4.641900   -2.381184   -1.161299
H      1.174997    2.910735    1.753147
H      1.778284    1.887916    3.111377
H     -0.848778    2.056566    2.291854
H     -0.145143    0.653881    3.166620
H     -3.767670   -0.981923    1.696682
H     -3.479998    0.637604    1.087287
H      3.946243    1.633965    2.302480
H      2.160814   -0.562172   -1.687614
H      0.073739   -0.122927   -2.122822
H     -0.052363   -1.438133   -0.866337
H     -1.779303   -0.663910    2.239665
H     -0.572962   -1.615513    1.359966
H     -5.691609   -0.136724    0.616376
H     -2.298559   -2.015386    0.002474
H     -0.036767    1.615673   -0.533784
H     -1.980105    0.835276   -0.998919
H     -2.398116   -0.096159   -2.925121
