46

C     -3.640464   -1.228955   -2.779302
C      0.694970    1.851010   -0.145057
C     -3.310486    0.080155   -2.070788
C     -3.927177    1.108955    2.647698
C      4.885821   -0.288654   -0.042413
C     -3.802959   -0.140739    2.091324
C     -3.174145    2.139515    2.128015
C      4.099952   -1.458258   -0.575286
C      4.189703    0.412334    1.089352
C     -2.950219   -0.360908    1.039753
C     -2.316941    1.904296    1.066987
C      2.659362   -1.003351   -0.837112
C      2.925588   -0.367008    1.487526
C      0.717394   -0.503969    0.493302
C      0.141704    0.482855   -0.479144
C     -2.175768    0.667583    0.494372
C     -1.861137    0.107625   -1.832711
N      2.117738   -0.489154    0.349545
N     -1.290615    0.432886   -0.574598
O     -1.077208   -0.178211   -2.807815
H     -4.436802   -1.736633   -2.155108
H     -2.729319   -1.841950   -2.807359
H     -4.050681   -1.070252   -3.785807
H      1.786935    1.826098   -0.438277
H      0.672370    2.093844    0.922424
H      0.159728    2.585067   -0.770555
H     -3.873773    0.189807   -1.146754
H     -3.568011    0.944669   -2.758423
H     -4.604221    1.300633    3.485075
H      5.849832   -0.714269    0.355527
H      5.118382    0.435460   -0.861241
H     -4.382406   -0.948303    2.489321
H     -3.275733    3.132675    2.574063
H      4.575948   -1.810609   -1.492552
H      4.041551   -2.229830    0.202024
H      4.855141    0.574089    1.960232
H      3.852680    1.394728    0.730072
H     -2.852470   -1.353863    0.601996
H     -1.764101    2.733966    0.707695
H      2.725731   -0.202984   -1.604127
H      2.093411   -1.826356   -1.324567
H      3.225950   -1.306153    1.987505
H      2.411168    0.337596    2.207020
H      0.342675   -1.514922    0.136426
H      0.342160   -0.414865    1.506433
H      0.578744    0.228725   -1.464689
