99

C     -7.691629    1.587055   -0.202040
C     -7.436453    0.134174   -0.083915
C     -8.539486    2.153764   -1.236381
C     -6.423148   -0.109651    1.089285
C     13.426703    3.302279   -0.209274
C     14.245857    2.281191   -0.084712
C     10.811632    0.231403   -2.039677
C     -5.083151    2.119605    2.610697
C      7.502657   -1.057101   -3.167659
C     10.980064    0.521838   -0.562961
C     -3.953117    2.274840    3.585524
C      6.557238   -0.927398   -1.970457
C     -2.113961    2.708549    2.186922
C      6.361394   -1.212424    0.283228
C     -1.321914    1.436871    2.355728
C      5.137943   -2.056029    0.148326
C     -1.445307   -0.850796    2.726818
C      3.217988   -2.649447    1.298136
C     -0.532615   -1.241451    1.561706
C      2.255706   -2.344575    0.162961
C     -0.491093   -1.726708   -0.674137
C      0.238294   -3.017945   -0.628127
C    -11.228961    0.391665    0.545046
C    -11.379006   -0.123886   -0.854341
C     -9.958445    1.828286   -1.420021
C     -5.207170    0.620891    0.721126
C      9.629788   -0.653874   -2.226679
C     12.066661    2.799490   -0.409242
C     13.490331    1.021744   -0.192587
C    -10.427319    0.506177   -1.778473
C     -9.999203   -1.713340   -1.572128
N     -4.660342    1.560856    1.382816
N      8.656665   -0.253444   -2.954002
N    -11.040056   -1.517004   -0.867678
N     -9.496961   -0.514715   -2.120055
N     12.133054    1.384916   -0.394870
O     -4.588445    0.237323   -0.488581
O      9.612768   -1.883811   -1.611778
O     11.068429    3.542113   -0.559606
O     13.952890   -0.132257   -0.120249
O     -9.439397   -2.988523   -1.762790
O     -2.916303    3.051711    3.222620
O      7.166708   -1.333672   -0.821284
O     -2.113210    0.323484    2.542339
O      4.354189   -1.898213    1.314512
O     -1.230939   -1.385256    0.419710
O      1.182287   -3.200293    0.327384
S    -10.829514    2.134782    0.206129
H     -6.645166    2.078578   -0.273354
H     -7.982676    1.933899    0.847468
H     -6.994521   -0.368406   -0.930648
H     -8.329595   -0.436712    0.266249
H     -8.469887    3.306024   -1.157061
H     -7.960425    2.016323   -2.233443
H     -6.958979    0.263652    1.959880
H     -6.250565   -1.182863    1.163032
H     13.713608    4.335205   -0.169648
H     15.310089    2.329051    0.072723
H     10.704348    1.159548   -2.633838
H     11.721995   -0.275056   -2.420539
H     -5.553499    3.115352    2.382293
H     -5.917966    1.541308    3.082872
H      6.945566   -0.709171   -4.066451
H      7.787829   -2.093946   -3.378779
H     11.144403   -0.427186   -0.038664
H     10.070581    0.999405   -0.156054
H     -3.701598    1.250843    3.940452
H     -4.426972    2.746812    4.509257
H      5.675463   -1.565115   -2.273919
H      6.236584    0.128946   -1.908742
H     -2.597060    2.643252    1.185528
H     -1.388301    3.577328    2.053328
H      6.899937   -1.563758    1.210526
H      6.094381   -0.135329    0.380161
H     -0.580404    1.581494    3.168645
H     -0.799783    1.285834    1.364795
H      5.415134   -3.120336    0.108161
H      4.503124   -1.714037   -0.703234
H     -2.178776   -1.658701    2.880902
H     -0.762915   -0.821337    3.621146
H      3.414525   -3.738965    1.319904
H      2.651655   -2.399999    2.234316
H      0.245839   -0.456673    1.445999
H     -0.027786   -2.161524    1.897510
H      2.003194   -1.284545    0.158133
H      2.710724   -2.603599   -0.824949
H     -1.082240   -1.618067   -1.631690
H      0.293601   -0.915135   -0.788208
H     -0.485549   -3.902493   -0.629382
H      0.781350   -3.133793   -1.625601
H    -10.459608   -0.073289    1.143035
H    -12.225573    0.417325    1.063913
H    -12.463053    0.015874   -1.181401
H    -10.412997    2.604785   -2.147014
H    -11.088064    0.685798   -2.748023
H     -8.627447   -0.410020   -2.663694
H     -3.651276    0.579356   -0.664893
H      9.210203   -2.670479   -2.070682
H    -10.013553   -3.828346   -1.817624
