46

C     -3.149683    3.655567   -0.441754
C     -0.044167    0.827961    1.697044
C     -1.980063    2.687105   -0.176448
C     -3.618353   -3.556500   -0.407307
C      4.802683   -0.343254    0.006642
C     -3.473514   -2.921657    0.823433
C     -3.095939   -2.950889   -1.527474
C      3.800800   -1.392950    0.296878
C      4.272104    1.049858   -0.131472
C     -2.827815   -1.720903    0.931854
C     -2.433592   -1.724411   -1.433115
C      2.385775   -1.098695   -0.153552
C      3.036752    0.972671   -1.024165
C      0.714205    0.520986   -0.651528
C     -0.279387    0.086929    0.409664
C     -2.316279   -1.139548   -0.204322
C     -2.411320    1.289901   -0.311197
N      2.043445    0.269312   -0.218324
N     -1.640620    0.137895   -0.025497
O     -3.618383    1.135982   -0.729371
H     -3.824283    3.583628    0.459071
H     -2.707302    4.669765   -0.406975
H     -3.668780    3.423625   -1.369430
H      0.368488    1.846002    1.539834
H     -0.945189    0.773379    2.306373
H      0.762200    0.264594    2.253708
H     -1.228559    2.984368   -0.930000
H     -1.694423    2.861687    0.867511
H     -4.119308   -4.496277   -0.526289
H      5.507758   -0.310192    0.891229
H      5.416948   -0.606855   -0.878851
H     -3.895478   -3.420881    1.683808
H     -3.183807   -3.403968   -2.495659
H      3.821334   -1.717666    1.376202
H      4.115076   -2.326199   -0.257541
H      3.907512    1.432819    0.850152
H      5.055116    1.682684   -0.578031
H     -2.731549   -1.254256    1.894275
H     -2.025045   -1.253054   -2.305896
H      1.737959   -1.668749    0.536928
H      2.198420   -1.556403   -1.160874
H      3.292390    0.280942   -1.870881
H      2.698805    1.946481   -1.363474
H      0.568755    1.573624   -0.921131
H      0.448780   -0.095579   -1.555492
H     -0.042468   -0.998878    0.577948
