44

C      3.744421    0.590700    1.355134
C      3.746399   -0.828344    0.936114
C     -3.880680    0.088728    1.037261
C      2.548901    1.386381    0.928222
C     -3.820343   -1.130786    0.194015
C      3.254979   -1.021785   -0.500486
C     -2.726552    1.013713    0.917500
C     -0.127709    0.837178   -1.656391
C     -0.311575    1.061945    0.830532
C      0.880171   -1.269930   -0.800426
C      0.492579    1.454965   -0.394550
C     -0.354305   -0.634114   -1.301892
C      1.906693    0.891015   -0.338373
C     -2.789810   -1.091912   -0.895040
C     -1.480540   -0.701348   -0.260266
N      1.980370   -0.469738   -0.574159
N     -1.546852    0.534417    0.383745
O     -3.145593   -0.233804   -1.932636
H      4.709328    1.067043    1.055102
H      3.753998    0.612424    2.484206
H      3.072514   -1.451278    1.577103
H      4.757195   -1.247326    1.026142
H     -4.856327    0.610185    0.806233
H     -4.014570   -0.248452    2.107741
H      1.804392    1.474411    1.746828
H      2.917876    2.443783    0.768447
H     -4.816241   -1.361936   -0.285730
H     -3.607749   -2.049249    0.813529
H      3.959418   -0.416342   -1.143823
H      3.275962   -2.084166   -0.747167
H     -2.535649    1.445497    1.944764
H     -3.076407    1.909612    0.322471
H      0.609900    0.858340   -2.462500
H     -1.091977    1.287658   -1.900625
H      0.255126    0.217542    1.323040
H     -0.403036    1.889724    1.549129
H      0.617208   -1.838400    0.140031
H      1.159423   -2.091668   -1.526097
H      0.556378    2.557375   -0.514334
H     -0.764488   -1.106821   -2.221524
H      2.447996    1.417123   -1.183056
H     -2.670551   -2.123758   -1.286568
H     -1.205279   -1.507350    0.446512
H     -3.224991   -0.741254   -2.768159
