44

C      3.988372   -0.735193    0.651026
C      4.067849    0.751751    0.533746
C     -3.789799   -1.314947    0.623021
C      2.785566   -1.292364   -0.067389
C     -4.042950   -0.071164   -0.194631
C      2.811425    1.461663    0.911311
C     -2.439760   -1.903400    0.416393
C     -0.142055    0.425405   -1.672062
C     -0.133275   -1.409385   -0.001913
C      0.531023    1.587141    0.452175
C      0.664569   -0.767864   -1.136498
C     -0.579677    1.190421   -0.443386
C      1.913500   -0.129959   -0.533697
C     -2.980661    0.951420    0.025853
C     -1.621673    0.359422    0.295800
N      1.607264    0.681611    0.581154
N     -1.491188   -0.999363   -0.115981
O     -2.916302    1.749529   -1.134344
H      4.006694   -1.041278    1.721021
H      4.910571   -1.154809    0.175050
H      4.443689    1.012472   -0.484680
H      4.870019    1.097051    1.233247
H     -4.006148   -1.150473    1.711754
H     -4.576608   -2.057735    0.298725
H      2.222950   -1.956221    0.619695
H      3.070592   -1.866311   -0.982168
H     -4.167742   -0.336586   -1.249445
H     -5.022386    0.348021    0.152176
H      2.784835    1.814936    1.948386
H      2.741035    2.375960    0.253210
H     -2.521950   -2.776434   -0.291961
H     -2.126858   -2.375190    1.389031
H      0.442429    1.007832   -2.377027
H     -1.072881   -0.021935   -2.105874
H      0.324501   -1.164816    0.978930
H     -0.060365   -2.516692   -0.099840
H      0.088395    1.743531    1.481215
H      0.914682    2.613378    0.177184
H      0.905227   -1.484875   -1.918222
H     -1.055023    2.138766   -0.833121
H      2.457966    0.377447   -1.354172
H     -3.305664    1.635075    0.851926
H     -1.429956    0.504957    1.393171
H     -3.070233    2.699206   -0.940832
