60

C      0.001454    5.901097   -0.537021
C      0.655176    4.019820   -2.055834
C     -4.964253   -2.972868    1.516728
C     -5.269507   -3.072026   -0.923361
C      5.637971   -2.332908   -0.845356
C      5.372187   -1.677332    1.481067
C     -0.336174    3.514777    0.124449
C     -3.187240   -2.216553    0.022034
C     -0.695389    2.163568   -0.488857
C     -2.209793   -2.262680    1.142740
C      3.608690   -1.150807   -0.229518
C     -0.345087    4.516430   -1.039041
C     -4.278156   -3.286112    0.202787
C      5.056423   -1.251875    0.072472
C     -0.712733    1.109652    0.586431
C      2.894562   -0.140276    0.580873
C     -1.111277   -1.291786    1.082559
C      1.462906    0.101793    0.429651
C      0.675458    1.078469    1.186760
C      0.517657   -0.543837   -0.472401
C     -0.865503   -0.292822    0.039900
O      3.567524    0.514669    1.417462
O     -0.280101   -1.297996    2.010917
O      1.073659    1.757918    2.146944
O      0.781342   -1.198724   -1.500038
O     -1.809199   -0.294598   -0.941430
K      0.000000    0.000000    0.000000
H      0.404246    6.497103   -1.394343
H      0.739381    5.819555    0.285971
H     -0.929828    6.387446   -0.167162
H      1.438547    3.473378   -1.524142
H      1.038730    4.896717   -2.629038
H      0.122008    3.362880   -2.758715
H     -5.990463   -3.398964    1.532907
H     -4.359629   -3.375567    2.337736
H     -5.084986   -1.873737    1.572956
H     -5.965607   -2.251899   -0.685497
H     -4.677226   -2.830857   -1.848269
H     -5.834104   -4.013837   -1.125957
H      5.439829   -1.998622   -1.886352
H      6.717975   -2.448233   -0.700135
H      5.056894   -3.259438   -0.700946
H      5.471253   -0.821392    2.180933
H      6.370818   -2.165753    1.457600
H      4.666690   -2.450153    1.859571
H     -1.090946    3.789572    0.861712
H      0.669858    3.407130    0.541349
H     -3.788930   -1.261882    0.009393
H     -2.761342   -2.416744   -0.972766
H      0.071670    1.910283   -1.235063
H     -1.636954    2.321315   -1.010960
H     -1.795129   -3.307596    1.164343
H     -2.749651   -2.144621    2.105490
H      3.498019   -0.847257   -1.290738
H      3.118006   -2.145320   -0.145105
H     -1.337652    4.553792   -1.507990
H     -3.843319   -4.298517    0.190725
H      5.599860   -0.328683   -0.130748
H     -1.411971    1.343517    1.410362
H     -2.406644    0.481389   -0.808041
