55

C     -2.544483   -1.525770   -3.189108
C      2.086307   -0.656193   -2.140529
C     -2.740048   -0.260333   -2.341077
C     -1.702020    4.402896   -0.048350
C     -1.258056   -1.730321    3.566930
C     -2.692582    3.581423   -0.533423
C     -0.541680    3.785902    0.368162
C     -1.349986   -0.361106    3.463060
C     -1.132560   -2.512561    2.440932
C     -2.509535    2.208701   -0.590248
C     -0.371313    2.421331    0.307033
C     -1.315550    0.227872    2.213775
C     -1.100505   -1.892755    1.194802
C      2.183922   -1.546453    0.671815
C      3.250157    0.500536    0.329095
C      3.648788   -1.947719    0.721761
C      3.940769    0.159233    1.633668
C     -0.070808   -0.367896   -1.142260
C      1.310839    0.022987   -0.963295
C     -1.351193    1.569380   -0.177581
C     -1.191603   -0.533990    1.093007
C     -2.426127   -0.438845   -0.933008
C     -1.166848    0.089801   -0.238222
N      1.993173   -0.202806    0.249009
O     -3.212031   -1.058999   -0.242508
O      4.416521   -1.144708    1.526534
H     -3.436726   -2.181419   -3.105007
H     -2.510719   -1.175062   -4.262319
H     -1.678058   -2.106843   -2.900315
H      2.005015   -1.749786   -2.068856
H      3.081748   -0.244316   -2.255133
H      1.499932   -0.350558   -3.047709
H     -3.859853   -0.081547   -2.429925
H     -2.250626    0.559481   -2.861075
H     -1.829483    5.484975    0.002235
H     -1.290018   -2.146840    4.561792
H     -3.608237    4.043344   -0.864720
H      0.263951    4.427106    0.759062
H     -1.448528    0.288209    4.320876
H     -1.061592   -3.594206    2.523352
H     -3.314073    1.601493   -0.956830
H      0.560705    2.050954    0.679556
H     -1.396041    1.330310    2.181723
H     -1.001707   -2.558563    0.347865
H      1.660942   -2.309699    0.061052
H      1.788038   -1.664882    1.704360
H      3.927167    0.353691   -0.510451
H      3.025783    1.606926    0.372692
H      4.111876   -1.972911   -0.286745
H      3.680582   -2.974093    1.152588
H      4.797457    0.827772    1.771862
H      3.250020    0.179342    2.477462
H     -0.178055   -1.500323   -1.194910
H     -0.387128   -0.048069   -2.182095
H      1.444080    1.115906   -1.230362
