56

C      1.319045   -2.144553    1.393460
C      0.248215   -0.658333   -0.050409
C      6.832000    1.779747   -0.880775
C      4.496495    2.093200   -0.783123
C      5.102591   -1.558665   -0.401925
C      1.395735   -1.297263    0.345629
C      5.755928    2.632245   -0.915191
C      5.347466   -0.105728   -0.584251
C      6.620347    0.397506   -0.713598
C      0.088012   -2.354660    2.048974
C      3.819726   -1.699015    0.423647
C      4.244126    0.753443   -0.618315
C     -0.990704   -0.828493    0.559659
C     -1.052888   -1.708417    1.641727
C     -4.400065    2.122955   -0.501672
C     -5.693353    1.347304   -0.769274
C     -3.753405    1.427153    0.692988
C      2.700143   -1.079247   -0.355695
C     -5.419819   -0.139655   -0.707970
C     -6.115751   -0.753842   -1.861936
C     -3.364879   -0.002603    0.338597
O      5.953456    4.014502   -1.081453
O      7.733507   -0.422646   -0.686725
O      0.066512   -3.227418    3.109106
O      3.990389   -1.022695    1.622638
O     -2.260227   -1.919951    2.291209
O     -3.572357    2.123686   -1.604984
O     -6.587124    1.724153    0.231506
O     -4.711341    1.445851    1.712302
O     -5.456812   -1.425909   -2.690630
O     -7.488958   -0.608737   -2.059106
O      2.944018    0.305700   -0.495128
O     -2.037392   -0.139831    0.070642
O     -4.089478   -0.447944   -0.773298
H      2.179371   -2.693516    1.784159
H      0.332676    0.024534   -0.901947
H      7.860299    2.136122   -0.979312
H      3.647951    2.762817   -0.810131
H      5.926620   -2.096014    0.104342
H      4.884943   -2.035581   -1.395991
H      3.677906   -2.802821    0.553955
H     -4.678907    3.131036   -0.199327
H     -6.123850    1.664559   -1.733789
H     -2.897981    2.014875    1.040909
H      2.645798   -1.536644   -1.380592
H     -5.924886   -0.535696    0.201661
H     -3.680945   -0.624025    1.192605
H      6.066918    4.547259   -0.219051
H      7.629007   -1.406533   -0.579236
H     -0.766433   -3.418151    3.611211
H      3.357814   -0.259302    1.729424
H     -2.376067   -2.525861    3.060085
H     -3.736853    1.404281   -2.247797
H     -6.987440    2.591680    0.009398
H     -4.685126    2.282262    2.223150
H     -8.013974   -1.247122   -2.652547
