56

C     -1.143094   -0.670650    2.419054
C      0.069005    0.144551    0.573807
C     -7.092380   -0.068966   -0.873293
C     -5.691056   -1.166455    0.685972
C     -3.691896    1.400696   -1.270348
C     -1.150683    0.008902    1.203895
C     -6.929506   -1.002062    0.119591
C     -4.801155    0.570268   -0.777583
C     -6.076048    0.724846   -1.344557
C      0.014271   -1.178443    2.961707
C     -2.357726    0.874329   -0.811772
C     -4.643259   -0.365864    0.217839
C      1.256312   -0.345028    1.074382
C      1.211132   -1.023496    2.304390
C      4.658345   -1.147991   -1.360871
C      5.320760   -0.200383   -0.398123
C      3.335452   -0.576341   -1.752554
C     -2.412236    0.548503    0.633863
C      4.935729    1.211756   -0.839211
C      5.836212    2.191276   -0.182590
C      2.774918    0.385164   -0.715466
O     -8.018638   -1.787802    0.558878
O     -6.253435    1.658697   -2.339098
O      0.019367   -1.856567    4.175098
O     -2.080971   -0.257967   -1.600178
O      2.408971   -1.516173    2.807168
O      4.540764   -2.437504   -0.822887
O      6.721018   -0.334323   -0.467019
O      3.350725    0.063836   -2.990978
O      5.354278    3.091767    0.518268
O      7.219504    2.068640   -0.375844
O     -3.372047   -0.514560    0.781671
O      2.491198   -0.238197    0.491260
O      3.626147    1.481116   -0.543047
H     -2.094208   -0.784725    2.925178
H      0.095247    0.669467   -0.377520
H     -8.080508    0.047482   -1.310112
H     -5.480943   -1.877023    1.470294
H     -3.800608    2.471109   -0.930553
H     -3.715831    1.422577   -2.407855
H     -1.541994    1.609740   -1.030434
H      5.305337   -1.205929   -2.275331
H      4.984018   -0.421743    0.617727
H      2.610117   -1.406927   -1.835538
H     -2.808549    1.409189    1.185776
H      5.061773    1.269139   -1.949997
H      1.859435    0.798698   -1.166338
H     -8.145035   -2.663812    0.059994
H     -5.489707    2.224384   -2.642520
H     -0.790236   -2.024115    4.732137
H     -2.587511   -0.229288   -2.448304
H      2.381281   -2.011900    3.704196
H      5.300272   -2.611268   -0.194851
H      7.063615   -0.156394    0.442961
H      2.672376    0.798195   -3.024266
H      7.771681    2.937568   -0.361922
