55

C      1.177630   -1.600386    2.937010
C     -0.046885   -1.998053    3.433378
C      0.088377   -0.575307    1.123518
C      6.337210    0.202107   -1.891312
C      4.344018   -1.057573   -1.914405
C      4.311682    1.276120    1.069763
C      1.293004   -0.877259    1.768840
C      5.557912   -0.758252   -2.493916
C      4.696934    0.537503   -0.169784
C     -1.226547   -1.702127    2.800994
C      5.922959    0.852775   -0.738638
C      2.845433    1.028603    1.403545
C      3.915101   -0.410792   -0.755036
C     -1.139334   -0.967528    1.610754
C     -4.700982   -0.875667   -1.096713
C     -5.306074    0.412789   -0.637602
C     -3.221766   -0.892211   -1.151807
C      2.602681   -0.453497    1.242432
C     -4.213173    1.476106   -0.814604
C     -4.840943    2.792504   -0.525018
C     -2.513575    0.042594   -0.207130
O      5.974070   -1.404576   -3.642418
O     -2.448721   -2.106574    3.308479
O      6.760209    1.807193   -0.189506
O      2.024706    1.713819    0.479147
O     -5.166179   -1.887135   -0.238479
O     -6.432988    0.700189   -1.377556
O     -2.799348   -0.588599   -2.445032
O     -4.505480    3.492267    0.465221
O     -5.832510    3.291465   -1.357475
O      2.685371   -0.713043   -0.166960
O     -2.309105   -0.673160    0.982941
O     -3.250864    1.169686    0.139786
H      2.099116   -1.850424    3.462076
H     -0.096281   -2.574096    4.369049
H      0.200433   -0.003364    0.202208
H      7.296173    0.461058   -2.320971
H      3.679493   -1.800065   -2.331524
H      4.496404    2.370947    0.967102
H      4.910381    0.867349    1.897344
H      2.640851    1.349623    2.434720
H     -5.106884   -1.135979   -2.100758
H     -5.504081    0.348144    0.458301
H     -2.878449   -1.930435   -0.957971
H      3.394350   -0.991143    1.761952
H     -3.869448    1.394989   -1.854508
H     -1.564349    0.369211   -0.629699
H      6.508519   -2.254816   -3.515745
H     -3.330191   -1.922395    2.896189
H      7.639569    2.009651   -0.628218
H      2.260965    2.675948    0.447272
H     -6.086277   -2.149643   -0.496397
H     -7.256220    0.459745   -0.847785
H     -3.425835   -0.851449   -3.141096
H     -6.591066    3.903162   -1.023958
