33

C      3.688284   -2.920305    1.505103
C      4.595446   -2.307702   -0.695374
C     -2.759553    3.506757   -0.244624
C     -0.955876    1.060848   -0.680195
C     -1.884596    0.515159    1.418293
C      0.126920    0.253625   -0.399301
C     -0.786775   -0.296801    1.690880
C      2.379997   -1.365150    0.069850
C      3.529641   -2.233954    0.390310
C     -3.165049    2.062257   -0.033573
C     -1.988219    1.205135    0.233603
C      0.239546   -0.441052    0.783932
C     -3.924523    1.613856   -1.204635
N      1.369345   -1.288038    1.085935
O     -4.080463    2.372142   -2.194050
O     -4.512144    0.354967   -1.307493
H      2.955127   -2.883964    2.279121
H      4.568370   -3.529148    1.644176
H      5.387600   -2.982305   -0.373123
H      4.075549   -2.604083   -1.620048
H      4.986962   -1.265732   -0.805055
H     -2.518851    3.696548   -1.317834
H     -1.852493    3.782074    0.327543
H     -3.631355    4.141152   -0.008818
H     -1.030495    1.596822   -1.607221
H     -2.662231    0.581164    2.187321
H      0.952237    0.128482   -1.111327
H     -0.729227   -0.830453    2.633105
H      2.742209   -0.336965   -0.232022
H      1.903653   -1.765250   -0.877567
H     -3.833884    2.002106    0.848843
H      1.369074   -1.768333    1.994002
H     -4.554223   -0.053861   -2.232930
