55

C     -1.868635   -1.591573    1.209668
C     -0.795331   -2.196353    1.813880
C     -0.441393    0.124305    0.428771
C     -6.847574    0.236762   -3.102058
C     -5.768349   -1.341810   -1.721411
C     -3.580307    1.667788   -2.080081
C     -1.699527   -0.401843    0.496885
C     -6.865260   -0.996760   -2.484122
C     -4.688087    0.720782   -2.191622
C      0.481109   -1.617320    1.715958
C     -5.779792    1.100018   -2.968999
C     -2.426590    1.153728   -1.257040
C     -4.682962   -0.514748   -1.560620
C      0.687250   -0.456488    1.029287
C      4.954992    1.601585    1.613312
C      5.929572    0.476860    1.336699
C      3.698416    1.016004    2.209655
C     -2.891710    0.233303   -0.158815
C      5.213154   -0.536483    0.464394
C      6.006497   -0.752618   -0.768946
C      3.162795   -0.032496    1.256216
O     -7.935437   -1.840266   -2.627852
O      1.552770   -2.237073    2.329070
O     -5.823277    2.337383   -3.620715
O     -1.478659    0.501447   -2.042952
O      4.679386    2.277753    0.416196
O      6.388306   -0.074352    2.514668
O      4.059452    0.439379    3.422067
O      5.516847   -0.503464   -1.904050
O      7.314727   -1.233966   -0.757105
O     -3.579032   -0.857926   -0.795049
O      1.863741    0.137337    0.902455
O      3.961323   -0.055688    0.090039
H     -2.878187   -1.997328    1.254606
H     -0.912432   -3.119472    2.370054
H     -0.279965    1.047399   -0.117046
H     -7.681608    0.532492   -3.699286
H     -5.741905   -2.299771   -1.219860
H     -3.896896    2.642314   -1.648394
H     -3.193271    1.901631   -3.094323
H     -1.917676    2.020141   -0.736452
H      5.428177    2.322073    2.330665
H      6.797621    0.906515    0.775754
H      2.932074    1.799417    2.376958
H     -3.539128    0.736402    0.558130
H      5.092299   -1.499246    1.017466
H      3.327001   -1.004689    1.761412
H     -8.685421   -1.776784   -1.976124
H      1.400397   -3.096329    2.837580
H     -5.018976    2.937678   -3.494899
H     -1.663151   -0.460218   -2.164761
H      3.704126    2.262867    0.246573
H      5.876790   -0.899491    2.729322
H      4.495315    1.056444    4.031926
H      8.036403   -0.795252   -1.323207
