55

C      0.590452    2.066869   -0.103047
C     -0.684135    1.515246    0.046713
C      1.508918   -0.029329    0.463091
C      6.289650   -1.981114    0.851103
C      4.913751   -0.504308    2.158111
C      4.900430    0.669888   -1.384539
C      1.692394    1.282975    0.108274
C      5.741209   -1.617927    2.060470
C      5.189141   -0.119133   -0.183160
C      6.011950   -1.229180   -0.271044
C      0.248692   -0.565873    0.608769
C      3.631411    1.443554   -1.368094
C     -0.886342    0.205646    0.400808
C      4.645130    0.237451    1.028550
C     -5.295669    0.246210   -1.016807
C     -5.908155    0.837068    0.194837
C     -4.076037   -0.604212   -0.697999
C      3.096517    1.809616   -0.034796
C     -5.398022    0.341579    1.499015
C     -6.236210   -0.802566    1.931252
C     -3.358061    0.182909    0.408189
O      5.977611   -2.330627    3.237119
O      6.602017   -1.658982   -1.449717
O      0.112208   -1.900547    0.969607
O      2.635756    0.792242   -2.127271
O     -6.215926   -0.526081   -1.760608
O     -5.757156    2.229035    0.133565
O     -3.283513   -0.737127   -1.818179
O     -7.479800   -0.665848    1.957225
O     -5.697673   -2.017452    2.307693
O      3.828977    1.358977    1.056517
O     -2.101353   -0.398315    0.564685
O     -4.096819   -0.038982    1.551576
H      0.733650    3.103888   -0.383432
H     -1.553823    2.138083   -0.121194
H      2.379667   -0.647647    0.629759
H      6.923544   -2.849349    0.822685
H      4.472865   -0.197806    3.086263
H      4.823542   -0.056517   -2.246691
H      5.778250    1.319484   -1.676296
H      3.820104    2.400971   -1.937542
H     -4.935355    1.028957   -1.731358
H     -7.023125    0.666444    0.126897
H     -4.452269   -1.566704   -0.298847
H      2.983891    2.926094    0.087419
H     -5.551389    1.141056    2.283123
H     -3.365027    1.234333    0.123876
H      6.560898   -3.146873    3.263646
H      6.483453   -1.203087   -2.326236
H      0.927663   -2.476308    1.124812
H      1.899714    1.478740   -2.203912
H     -5.740470   -1.158255   -2.355823
H     -6.546818    2.661823   -0.313309
H     -3.549541   -1.589064   -2.286752
H     -6.210767   -2.699927    2.868092
