35

C      4.435042   -0.051812   -0.821384
C     -2.189837    0.816089   -2.017160
C     -4.217775    1.364580    2.002890
C      3.420433    0.872026   -0.199152
C     -1.504112   -0.388629   -1.422926
C      1.996640    0.274950   -0.407819
C      1.912662   -1.055378    0.231983
C      0.696149   -1.849407    0.106265
C     -0.617508   -1.419524    0.613103
C     -2.887652    1.167021    1.357148
C     -1.286562   -0.226649    0.074299
O     -2.018435    2.091218    1.395890
O     -2.553075    0.011375    0.710968
H      4.878918   -0.662738    0.000563
H      5.272385    0.543723   -1.277497
H      3.980286   -0.700869   -1.575698
H     -1.521465    1.707563   -1.978443
H     -3.142674    0.972039   -1.495321
H     -2.374121    0.585447   -3.085958
H     -4.460952    2.443473    2.005219
H     -4.986332    0.822102    1.423976
H     -4.200106    1.043690    3.074801
H      3.445607    1.840959   -0.730094
H      3.590445    0.969059    0.880155
H     -2.118277   -1.276800   -1.650185
H     -0.541337   -0.506396   -1.957380
H      1.844234    0.238268   -1.497527
H      1.354607    1.043237    0.097905
H      2.223694   -0.941101    1.323677
H      2.768468   -1.676472   -0.216860
H      0.541476   -2.074327   -1.024368
H      0.868848   -2.922520    0.493211
H     -1.313483   -2.322094    0.442207
H     -0.565340   -1.415188    1.744377
H     -0.730850    0.683087    0.238560
