32

C      4.041437    1.311745    0.951999
C     -4.615466   -0.784867   -0.178952
C     -3.567424    1.272464    0.656033
C      2.583885   -1.760459   -0.760895
C      3.929110    0.118069    0.042613
C     -2.174587   -0.609734   -0.084798
C      1.476917    0.397131   -0.152427
C     -3.452104    0.147503   -0.371660
C      2.602876   -0.580878    0.187181
C     -0.975700    0.250170   -0.255128
O     -1.052201    1.459451   -0.598032
O      0.259910   -0.326524   -0.021277
H      3.773313    2.244063    0.387276
H      3.358527    1.235717    1.834151
H      5.058656    1.406101    1.348244
H     -5.398654   -0.656422   -0.951836
H     -5.114139   -0.632668    0.818359
H     -4.299885   -1.846925   -0.220877
H     -4.292061    0.972181    1.455810
H     -2.604829    1.478379    1.152314
H     -3.918748    2.199718    0.162006
H      3.149221   -1.550864   -1.697521
H      1.547401   -2.037722   -1.053625
H      3.086250   -2.640123   -0.271026
H      4.751442   -0.601798    0.172300
H      3.987786    0.479824   -1.011166
H     -2.178818   -1.011019    0.952400
H     -2.136771   -1.501706   -0.753016
H      1.660833    0.727652   -1.186176
H      1.504139    1.237491    0.545015
H     -3.419299    0.559815   -1.382723
H      2.428983   -0.955765    1.215832
