42

C     -2.565664    1.133901   -0.624289
C     -2.392934   -1.183156    1.119434
C      3.447647   -0.673810    0.608803
C      2.699554   -1.452197   -0.252863
C      3.049393    0.612498    0.944821
C      1.515801   -0.960682   -0.811886
C      1.878278    1.079647    0.384029
C     -0.124306    0.894220   -1.024766
C     -1.281668    0.563322   -0.094277
C      1.128622    0.311573   -0.474604
N     -1.410012   -0.855236    0.105413
C     -0.871372   -0.524445    0.145027
C      0.633837   -0.775692    0.227516
C     -1.249218    0.501707   -0.834836
C      1.412589    0.420897    0.584367
O     -1.487814   -1.760077   -0.177791
O      0.811293   -1.767052    1.245998
O     -1.934157    0.143682   -1.850150
O     -0.918062    1.827896   -0.734274
O      1.995552    0.488784    1.710374
O      1.551980    1.497648   -0.253813
H     -2.680871    2.177924   -0.273598
H     -3.444664    0.510674   -0.381795
H     -2.512177    1.184301   -1.748517
H     -1.900146   -1.627561    2.016645
H     -3.103494   -1.907080    0.679083
H     -2.962012   -0.285655    1.419347
H      4.379902   -1.021202    1.071254
H      3.046450   -2.439293   -0.478894
H      3.659057    1.207502    1.627992
H      0.958992   -1.595365   -1.478892
H      1.573570    2.104906    0.654121
H     -0.312345    0.588450   -2.061762
H      0.007004    1.994092   -1.039006
H     -1.056838    1.009573    0.905824
H     -1.597138   -1.371347   -0.791617
H     -1.217945   -0.269221    1.161039
H      0.981311   -1.269931   -0.700781
H     -1.424299   -1.888566   -1.166939
H      0.747672   -1.228273    2.090697
H     -1.446764    2.586552   -1.143551
H      2.415395    2.016090   -0.302884
