34

C     -5.445172    0.521665   -0.669767
C     -4.769092   -0.658145   -0.885866
C     -4.773010    1.503956    0.032698
C     -3.484921   -0.838756   -0.419409
C     -3.486879    1.330361    0.502972
C      3.620987   -0.626326    0.539012
C      5.046989   -0.367068    0.029826
C     -1.136253   -1.511199    1.283837
C     -2.808350    0.147952    0.286803
C     -1.423227   -0.078525    0.776312
C      2.918530    0.584668   -0.000930
C     -0.498105   -0.977364    0.049674
C      4.759428    0.324402   -1.262062
C      1.466246    0.391935   -0.148728
N      3.583708    0.836832   -1.249125
N      0.927358   -0.734789    0.175550
O      5.634077    0.402900   -2.323265
O      0.704409    1.441310   -0.639608
H     -6.457385    0.693720   -1.024814
H     -5.268035   -1.442506   -1.430806
H     -5.285594    2.457848    0.221806
H     -2.928827   -1.770326   -0.580606
H     -2.970034    2.126489    1.060495
H      3.608566   -0.658492    1.630436
H      3.217400   -1.552696    0.074821
H      5.581962   -1.311268   -0.138731
H      5.517177    0.309407    0.744409
H     -0.584359   -1.615744    2.224654
H     -1.931545   -2.267667    1.128213
H     -0.950134    0.747611    1.328567
H      3.126842    1.422016    0.696016
H     -0.850678   -1.353283   -0.930442
H      5.618467    1.205941   -2.942720
H     -0.280543    1.315141   -0.905146
