97

C     -0.710715    5.096023   -1.373416
C     -0.994727   -0.509969   -2.236571
C     -3.651825   -0.760606    0.054537
C     -3.047143   -2.989858    0.147035
C     -0.464004    3.809271   -2.137176
C      3.257672   -3.779293    0.660538
C      1.089986    1.660564    3.564571
C      3.613634   -2.549081    1.147901
C      2.365473   -3.829906   -0.390863
C      0.902983    0.325924    3.232373
C      1.064054    2.628582    2.595272
C      3.104433   -1.398805    0.618047
C      1.860294   -2.644941   -0.917569
C      0.685450   -0.021838    1.905724
C      0.841936    2.251126    1.263733
C      1.707403   -0.177988   -0.993950
C     -1.294080   -1.457519   -0.025781
C     -0.833541   -0.266081   -0.708170
C      2.182929   -1.401496   -0.464431
C      0.652042    0.933572    0.917966
C     -0.570596    2.626232   -1.236047
C      0.421674    0.462833   -0.487295
N     -2.713723   -1.682533   -0.430144
O     -1.526259    2.580033   -0.459509
O      0.354593    1.643191   -1.266364
C      5.524179   -0.163216   -0.138200
C      4.597043    1.000040   -0.411115
C      3.438978    1.044174    0.543939
C     -3.525693    2.967591   -1.338334
C     -3.504276   -3.457239   -0.664903
C     -2.236431    2.910260   -1.843260
C     -3.807784    2.238142   -0.199702
C     -3.377461   -3.241628    0.689001
C     -2.706594   -2.814583   -1.586641
C     -1.290732    2.137215   -1.201810
C     -2.853531    1.466114    0.437020
C     -2.415183   -2.350316    1.114079
C     -1.744195   -1.918839   -1.101828
C      2.585103   -0.189517    0.488553
C     -1.567705    1.407772   -0.065703
C     -1.601165   -1.689940    0.237059
C      1.442860   -0.069982    1.477599
C      0.567330    1.080739    1.215908
C      0.535312   -1.216966    1.440112
N     -0.591072    0.617325    0.586520
N     -0.631424   -0.790867    0.711524
O      0.867962    2.263364    1.531025
O      0.754657   -2.353234    1.955490
H     -1.749308    5.210035   -1.026789
H     -0.440232    5.935850   -2.031216
H      0.005947    5.166613   -0.493239
H     -2.105872   -0.599535   -2.379344
H     -0.668723    0.344706   -2.817644
H     -0.604576   -1.475808   -2.537723
H     -3.456752    0.295912    0.069746
H     -4.572142   -0.863865   -0.625642
H     -4.056234   -1.095462    1.049527
H     -4.023035   -2.938914    0.702964
H     -2.318067   -3.340049    0.866530
H     -3.115647   -3.761757   -0.651414
H     -1.280322    3.777002   -2.914058
H      0.489556    3.856192   -2.660450
H      3.664699   -4.707848    1.091776
H      1.258061    1.862521    4.626496
H      4.306975   -2.508228    1.968796
H      2.082350   -4.805941   -0.781980
H      0.923047   -0.462242    3.988107
H      1.212544    3.645160    2.870770
H      3.378793   -0.409557    0.983552
H      1.179628   -2.774648   -1.743590
H      0.573181   -1.076115    1.699730
H      0.862067    3.057599    0.542995
H      1.602943   -0.202786   -2.117942
H      2.533456    0.598445   -0.874896
H     -1.434949   -1.343028    1.090917
H     -0.854260   -2.428005   -0.313006
H     -1.691070    0.496314   -0.563382
H      5.041107   -1.117609   -0.479992
H      6.510779   -0.002228   -0.594593
H      5.692037   -0.302819    0.960258
H      5.202160    1.924968   -0.242073
H      4.309437    0.985795   -1.468324
H      3.794363    1.224312    1.558901
H      2.791884    1.905208    0.243051
H     -4.269686    3.582947   -1.852165
H     -4.264746   -4.161318   -0.982641
H     -2.028647    3.484023   -2.733115
H     -4.832326    2.303734    0.172572
H     -3.992838   -3.735793    1.415696
H     -2.830169   -3.005395   -2.639427
H     -0.294935    2.131637   -1.643076
H     -3.161988    0.927974    1.324920
H     -2.297777   -2.167660    2.161036
H     -1.129193   -1.426741   -1.868262
H      3.228373   -1.036354    0.824044
H      2.154945   -0.360217   -0.514871
H      1.917042   -0.030872    2.481728
