37

C     -2.160072   -2.060457    1.413873
C      4.510793    2.026471    1.382272
C     -0.171627   -0.014272    0.347296
C     -0.817057    0.285911   -1.881092
C      1.156129    0.295947    0.031674
C      0.485070    0.591517   -2.195968
C     -4.396936   -1.041908    1.308744
C      6.127993    0.419440   -0.106712
C     -2.962182   -0.765672    1.096889
C     -1.174123   -0.026603   -0.588497
C      1.506793    0.603066   -1.238638
C     -5.226936   -0.914400    0.111154
C     -2.583664   -0.372831   -0.238465
C      3.850648    1.121710   -0.779765
N      6.939159    0.224074    0.717802
N      3.643282    1.702240    0.311584
N      5.182312    0.659551   -1.100532
N      2.784213    0.938561   -1.694446
N     -4.759069   -0.564767   -1.037521
N     -3.413364   -0.287231   -1.208595
O     -6.623636   -1.178691    0.168968
H     -2.887202   -2.924099    1.362506
H     -1.666800   -2.001748    2.379818
H     -1.461897   -2.219943    0.586029
H      4.715251    1.203655    2.083582
H      3.992539    2.813860    2.008873
H      5.402664    2.537385    0.978978
H     -0.426240   -0.247828    1.379123
H     -1.594411    0.283985   -2.645855
H      1.895990    0.283359    0.801026
H      0.714481    0.831801   -3.233236
H     -4.572945   -2.041996    1.810323
H     -4.775150   -0.241085    2.033842
H     -2.581442    0.028097    1.813530
H      5.412264    0.510497   -2.119577
H      2.979554    1.054777   -2.736536
H     -7.044382   -1.512372   -0.709618
