54

C     -4.413963   -0.669164   -0.352429
C     -2.967805    1.299118    0.070869
C      2.154300   -0.877987    1.063613
C      3.510819   -1.019655    0.845307
C      2.073909    0.911180   -0.523425
C     -0.757719   -0.939768    0.007981
C     -2.992129   -0.084252   -0.484409
C      1.452411    0.093487    0.369870
C      4.109469   -0.171541   -0.069033
C      3.434037    0.786157   -0.757910
C     -0.026097    0.214210    0.632386
N     -2.137313   -0.980414    0.154428
O      5.488748   -0.285433   -0.316204
O      4.033350    1.640552   -1.679214
O     -0.269900    0.167335    2.006800
C      0.777192    0.577342   -0.218283
C     -0.745921    0.433374   -0.356439
C      1.405902   -0.747414   -0.322281
C     -1.347555   -0.182179    0.837118
O      1.194856    1.342264   -1.345518
O     -1.266362    1.762186   -0.387481
O      2.048509   -1.004614   -1.401772
O      1.332915   -1.706395    0.683912
O     -2.036918    0.495216    1.645580
O     -1.160668   -1.527340    1.082117
O     -0.007288    0.376952   -0.000000
O     -0.004270    0.378067   -0.000000
H     -5.109350   -0.206467   -1.047537
H     -4.687128   -0.567155    0.721459
H     -4.297005   -1.756888   -0.580619
H     -2.551171    1.350367    1.082291
H     -2.391014    1.962996   -0.610900
H     -3.992505    1.761932    0.096516
H      1.642597   -1.522600    1.771130
H      4.082805   -1.782127    1.386129
H      1.487889    1.670382   -1.054745
H     -0.520511   -0.983333   -1.092587
H     -0.333406   -1.917535    0.388835
H     -2.732739   -0.056347   -1.578662
H     -0.328694    1.188550    0.226105
H     -2.542822   -1.632658    0.842796
H      6.066917   -0.969155    0.146571
H      3.503644    2.344015   -2.173569
H      0.010375    1.032197    2.412616
H      1.050571    1.052000    0.728601
H     -1.015749   -0.065657   -1.290856
H      1.451229    2.221824   -1.006734
H     -2.024507    1.753407   -1.019576
H      2.153751   -2.317567    0.762349
H     -1.817245   -2.086448    1.609262
H      0.819416   -0.185973    0.000000
H     -0.812128   -0.190979   -0.000000
H      0.815887   -0.187569    0.000000
H     -0.811617   -0.190497   -0.000000
