52

C      7.910283   -0.045178   -0.975426
C      7.135958   -1.179080   -0.869289
C      7.498402    1.160431   -0.447459
C     -0.845863   -1.426827    1.306266
C     -0.005393   -1.697522    0.112247
C      5.937500   -1.074695   -0.220555
C      6.267661    1.245025    0.213113
C     -1.891927   -0.381588    1.219587
C      0.653597    0.511195   -0.966340
C     -4.198006   -1.276620   -1.849590
C     -3.312140   -2.394855   -1.479595
C     -5.252509    0.317847    1.217598
C     -3.705527    1.671281    0.043376
C     -6.089552    1.394543    1.342982
C     -4.523072    2.769275    0.152767
C      1.606395    1.512474   -1.137700
C      2.140973   -0.626629    0.470850
C      0.905853   -0.554188   -0.171934
C     -2.914058   -0.970183   -1.058266
C     -4.059063    0.460011    0.565990
C     -5.720711    2.613005    0.810499
C      5.477389    0.130003    0.331952
C     -3.074444   -0.673822    0.381078
C      2.815148    1.428733   -0.500517
C      3.083739    0.357100    0.305705
Cl    -6.775692    4.016883    0.955322
F      3.716787    2.437020   -0.701513
O      4.274912    0.205748    0.977013
H      8.878387   -0.096391   -1.491037
H      7.461124   -2.118034   -1.282567
H      8.119514    2.052913   -0.537041
H     -1.337400   -2.374809    1.697508
H     -0.154964   -1.162104    2.171211
H      0.593525   -2.624306    0.335619
H     -0.547393   -1.903855   -0.806610
H      5.277701   -1.926977   -0.100441
H      5.998634    2.210716    0.615261
H     -2.281054   -0.217945    2.270796
H     -1.390249    0.585011    0.958350
H     -0.297216    0.585855   -1.474001
H     -5.111554   -1.071549   -1.283488
H     -4.251700   -1.017417   -2.909109
H     -2.656953   -2.848164   -2.231660
H     -3.689865   -3.072387   -0.692899
H     -5.533504   -0.645795    1.633233
H     -2.754060    1.811343   -0.483646
H     -7.045820    1.336106    1.849456
H     -4.216394    3.709572   -0.269451
H      1.328311    2.337394   -1.792778
H      2.365047   -1.483699    1.120102
H     -2.202998   -0.451770   -1.696859
H     -3.607760   -1.543097    0.899409
