39

C      4.901091    1.846266    0.766787
C      6.049125   -0.139650   -0.060592
C      0.272957   -1.765560   -1.534788
C     -0.908888   -1.369627   -0.936092
C      1.449850   -1.135864   -1.154817
C     -5.769895    0.970013    0.407016
C     -6.751171   -0.133882    0.071644
C      0.222620    0.228479    0.375561
C     -3.101289    0.864738   -0.242926
C      4.975827    0.341128    0.895006
C     -0.958486   -0.380438    0.016190
C      1.436269   -0.144162   -0.206882
C     -2.203739    0.031865    0.641633
C      3.657696   -0.271463    0.514695
C     -4.263080   -0.826565    0.838098
N      2.667239    0.467209    0.145549
N     -3.038426   -1.088115    1.044868
N     -4.431853    0.468717    0.283056
O      3.526643   -1.650266    0.568528
S     -5.905456   -1.504436    0.977905
H      4.201610    2.270304    1.517128
H      4.561194    2.146757   -0.248658
H      5.940230    2.238506    0.884921
H      5.805013   -1.155972   -0.403423
H      6.091452    0.504545   -0.982600
H      7.053205   -0.074893    0.417759
H      0.251534   -2.548522   -2.277186
H     -1.814243   -1.849735   -1.224293
H      2.387979   -1.454651   -1.634342
H     -5.929834    1.809655   -0.293761
H     -6.014995    1.298694    1.439673
H     -7.715444    0.089635    0.537902
H     -6.795245   -0.349728   -1.005139
H      0.290793    1.016885    1.114387
H     -3.052638    0.627792   -1.301443
H     -2.929892    1.950672   -0.107905
H      5.224710    0.092902    1.939235
H     -1.986504    0.603769    1.562791
H      2.604044   -2.025003    0.833429
