35

C      2.017613    0.577320    2.307454
C      1.663466   -1.719907   -1.505391
C      2.815362    0.412477   -0.408243
C      1.115628    0.786257    1.086762
C     -3.743615    1.194077    0.809874
C     -3.221442    1.548144   -0.409036
C     -3.230926    0.112168    1.468278
C     -2.177487    0.813120   -0.972183
C     -2.215720   -0.592257    0.907986
C      0.798889   -0.538699   -0.975906
C     -1.637859   -0.284193   -0.330563
C     -0.565567   -1.066635   -0.899688
N      1.521347   -0.043472    0.075025
O     -1.000935   -1.453896   -2.199702
Cl     0.690406    0.000000    0.000000
H      2.381809   -0.469832    2.327708
H      1.475583    0.802819    3.240977
H      2.901885    1.247182    2.294995
H      1.036832   -2.525708   -1.913935
H      2.434897   -1.364081   -2.204076
H      2.217233   -2.189443   -0.643617
H      3.175918    1.277154    0.163913
H      2.686584    0.677790   -1.473499
H      3.538560   -0.436080   -0.345527
H      1.363416    1.854263    0.774170
H      0.117132    0.849317    1.459876
H     -4.546202    1.738223    1.279785
H     -3.657788    2.419872   -0.897087
H     -3.638824   -0.181998    2.445149
H     -1.825205    1.161288   -1.932360
H     -1.828478   -1.453392    1.458938
H      0.850390    0.193763   -1.806369
H     -0.548617   -2.063370   -0.358837
H     -0.273879   -1.282272   -2.824869
H     -0.690406    0.000000    0.000000
