27

C      1.301881    0.092860   -1.505748
C      1.541800    1.033446    0.760269
C     -1.095630    1.832886   -0.569768
C     -0.470647   -1.826326   -0.401042
C     -1.309296   -0.650920   -0.921960
C      0.581079   -1.237036    0.488329
C     -0.092326   -0.836897    1.784535
C     -1.053937    0.184672    1.305931
C      0.734654    0.158684   -0.142088
C     -0.751432    0.492039   -0.112878
Cl    -0.875540   -2.207604    2.573088
O     -1.935136    0.687344    1.949321
H      0.613001    0.270467   -2.330591
H      1.736925   -0.937798   -1.661480
H      2.164640    0.781662   -1.644386
H      0.839624    1.605359    1.404989
H      2.239560    0.451279    1.423197
H      2.172841    1.729229    0.156132
H     -1.097436    2.536770    0.312884
H     -2.152537    1.849864   -0.934172
H     -0.391370    2.287147   -1.295579
H     -0.060882   -2.418767   -1.242355
H     -1.143018   -2.469215    0.211645
H     -2.382677   -0.778996   -0.652592
H     -1.234910   -0.526681   -1.996050
H      1.499586   -1.774934    0.581750
H      0.621185   -0.328535    2.458620
