85

C     -1.296336    0.198385    4.027768
C     -5.823670    0.260359    1.792466
C     -6.648063   -2.467546   -0.993760
C     -6.683197   -1.950375   -3.387812
C      8.986992    0.571692   -0.371364
C      6.528918    0.249127    3.847930
C      8.261838    1.732402   -0.280141
C      8.319523   -0.601962   -0.602943
C      5.944295    1.419154    3.407682
C      6.320467   -0.936441    3.185287
C     -1.059172   -1.765943   -1.847135
C      6.875255    1.696667   -0.422982
C      6.952488   -0.657631   -0.746875
C     -1.566544   -1.126004   -0.719924
C      5.145114    1.379770    2.288580
C      5.518626   -0.995719    2.055969
C     -0.805260   -1.035123   -2.993805
C      2.670392    0.071213    0.610184
C      1.932788    1.341485    0.283755
C     -1.554214    0.952646   -1.906600
C      4.743576    0.423443   -0.812596
C     -6.889046   -0.114473   -1.802212
C     -4.707119   -1.351740   -2.031748
C     -2.143044    0.401184    2.783063
C     -4.327375    0.424196    1.732889
C      6.220077    0.511537   -0.655082
C     -1.809306    0.231701   -0.762553
C      4.940125    0.187055    1.628322
C     -1.043630    0.320898   -3.048803
C     -1.587687    0.711924    1.639207
C     -2.355414    0.913712    0.432781
C     -3.801523    0.733213    0.581499
C     -0.100499    0.855442    1.609470
C     -6.206886   -1.445702   -2.052403
N     -3.551033    0.235127    2.912748
N      4.095755    0.225744    0.467655
N     -0.778750    1.052172   -4.234011
O      0.624767    0.695394    2.607907
O     -0.995551    2.390518   -4.347937
O     -0.327120    0.455013   -5.225177
O     -4.724502    2.368555   -1.393099
O      0.539331    1.183517    0.425237
O     -6.395584    0.470200   -0.611849
O     -4.237600   -0.053329   -2.144597
P     -4.842193    0.957678   -0.903187
Cl     0.687687    0.000000    0.000000
H     -0.625642   -0.656876    3.943947
H     -1.998065   -0.086314    4.875811
H     -0.795963    1.115530    4.333220
H     -6.331520    1.190252    1.528499
H     -6.169027   -0.662166    1.334884
H     -6.055531    0.130758    2.900225
H     -5.892510   -2.578016   -0.196878
H     -7.549401   -2.041233   -0.508904
H     -6.910172   -3.436984   -1.466685
H     -7.507233   -2.709479   -3.288426
H     -5.895640   -2.452920   -3.969503
H     -7.108934   -1.146179   -4.026520
H     10.077438    0.585324   -0.261421
H      7.153045    0.292552    4.726019
H      8.727775    2.685148   -0.099416
H      8.888828   -1.538949   -0.678327
H      6.080079    2.370980    3.897284
H      6.793340   -1.838031    3.553161
H     -0.881599   -2.843067   -1.770295
H      6.324220    2.622791   -0.346620
H      6.489609   -1.610758   -0.927224
H     -1.782797   -1.643957    0.198747
H      4.690675    2.302720    1.950996
H      5.336456   -1.901102    1.517467
H     -0.406383   -1.589122   -3.855808
H      2.376421   -0.722817   -0.127037
H      2.461496   -0.278232    1.618808
H      2.296550    2.114282    1.025120
H      2.163938    1.710754   -0.731139
H     -1.728616    2.024095   -1.993324
H      4.479797   -0.418542   -1.517879
H      4.365780    1.389725   -1.230761
H     -7.967837   -0.290292   -1.764395
H     -6.593404    0.561700   -2.624116
H     -4.302295   -1.904156   -2.904994
H     -4.308255   -1.890007   -1.142612
H     -2.234485    2.035651    0.195225
H     -4.020151   -0.012199    3.811066
H     -0.687687    0.000000    0.000000
