85

C      0.866115    3.045244   -1.498663
C     -4.151233    3.038621   -0.918753
C     -8.038971    1.205039    1.906192
C     -7.196344   -1.104997    1.505627
C      8.452105    0.525421    1.969271
C      5.553275    1.688636   -1.445232
C      8.196594   -0.548712    1.148911
C      7.514604    0.918455    2.898947
C      5.081769    2.051867   -0.201907
C      5.506358    0.382660   -1.859417
C     -1.726527   -3.448444   -0.629506
C      7.000621   -1.212290    1.275577
C      6.325035    0.253557    3.020545
C     -1.665627   -2.167488   -0.119068
C      4.562761    1.083009    0.617981
C      4.982410   -0.566683   -1.018987
C     -1.729865   -3.622536   -1.995080
C      2.853385   -2.068473    0.934517
C      1.874770   -1.926733   -0.110992
C     -1.612808   -1.252928   -2.276453
C      4.812894   -1.576431    2.300003
C     -6.854949    0.606841   -0.204499
C     -5.663525    0.715856    2.001847
C     -0.402641    2.307273   -1.106324
C     -2.820646    2.308460   -0.827933
C      6.055362   -0.817584    2.211058
C     -1.607622   -1.048623   -0.914633
C      4.487805   -0.264541    0.254646
C     -1.672570   -2.514971   -2.830185
C     -0.352069    1.050928   -0.728620
C     -1.531379    0.315345   -0.346234
C     -2.792919    1.051493   -0.448380
C      0.999448    0.373488   -0.725218
C     -6.920781    0.376361    1.264637
N     -1.642127    3.012199   -1.177873
N      3.983671   -1.271052    1.070288
N     -1.669768   -2.643780   -4.237295
O      2.027493    0.977284   -1.081324
O     -1.730884   -3.935158   -4.755498
O     -1.616616   -1.695540   -5.021290
O     -4.190393   -1.186018   -0.651131
O      1.095679   -0.874838   -0.339390
O     -5.640960    1.028147   -0.676283
O     -4.541235    0.023893    1.609462
P     -4.347250    0.195001   -0.051836
Cl     0.688152    0.000000    0.000000
H      0.526774    4.114659   -1.689287
H      1.500214    3.110749   -0.611423
H      1.301088    2.637151   -2.408523
H     -4.692897    2.765845   -1.840672
H     -3.911534    4.138075   -1.068782
H     -4.711318    3.005583    0.009982
H     -8.608014    0.535783    2.584648
H     -7.624515    2.032669    2.506263
H     -8.735977    1.541922    1.109932
H     -7.144723   -1.686744    0.546411
H     -8.259371   -1.204265    1.850117
H     -6.480176   -1.562180    2.194223
H      9.383943    1.060042    1.885944
H      5.971716    2.432413   -2.120334
H      8.911063   -0.893373    0.400170
H      7.690379    1.764219    3.560208
H      5.124060    3.092249    0.117737
H      5.874874    0.074099   -2.842020
H     -1.770753   -4.301528    0.027954
H      6.786107   -2.062799    0.639590
H      5.549253    0.527829    3.744598
H     -1.663383   -2.038633    0.964706
H      4.183736    1.383238    1.578460
H      4.942810   -1.616199   -1.348062
H     -1.777324   -4.629868   -2.380209
H      2.257907   -2.070836    1.945768
H      3.214710   -3.186936    0.869647
H      1.144788   -2.852341   -0.094006
H      2.418877   -2.235649   -1.131621
H     -1.567743   -0.392501   -2.919072
H      4.167343   -1.256639    3.142406
H      5.029016   -2.650208    2.301961
H     -7.590215    1.427294   -0.455446
H     -7.233254   -0.270775   -0.798254
H     -5.796498    0.503253    3.090845
H     -5.416452    1.811283    1.954614
H     -1.420722    0.140323    0.788454
H     -1.686236    4.025535   -1.481008
H     -0.688152    0.000000    0.000000
