56

C      5.165543    0.124572    0.011885
C     -3.915365   -0.217955    3.283423
C     -4.732932    0.672579    2.625925
C     -2.753764   -0.628600    2.655721
C     -4.399276    1.143007    1.370060
C     -1.593635   -0.631290   -3.867357
C     -2.376576    0.194311   -3.091935
C      3.192057    0.201004    1.251176
C      3.103938    0.221020   -1.166111
C      1.737426   -0.174645    1.385770
C      1.746148    0.708317   -0.786697
C     -1.117028   -0.797849    1.034479
C     -0.058054   -0.975636   -2.103688
C     -2.395445   -0.175065    1.401740
C     -0.446294   -1.221716   -3.406641
C     -0.796911   -0.167601   -1.300908
C     -0.283653    0.032272    0.102006
C     -3.245680    0.707141    0.797713
C     -1.947621    0.405444   -1.806767
Cl     0.539191   -2.275405   -4.416669
N      3.770494   -0.274463    0.009272
N      1.098465   -0.291282    0.076098
S     -3.045515    1.449231   -0.820284
C     -0.559186   -1.043842   -0.482628
C      0.659547   -0.917757   -0.065973
C     -1.546449   -0.019726   -0.503573
C      1.197386    0.306958    0.446621
O     -2.727610   -0.333698   -0.961889
O     -1.500355    1.295830   -0.118841
O      0.671448    1.415335    0.595947
O      2.563856    0.276773    0.862195
H      5.768467   -0.462721    0.734357
H      5.621686    0.056997   -0.998042
H      5.212687    1.194013    0.369087
H     -4.181599   -0.593087    4.284645
H     -5.646190    0.987558    3.133835
H     -2.131614   -1.338982    3.215739
H     -5.085801    1.845560    0.900393
H     -1.905490   -0.815530   -4.881432
H     -3.284269    0.679918   -3.408143
H      3.317148    1.298225    1.366013
H      3.739619   -0.281586    2.085074
H      3.090292   -0.540835   -1.971328
H      3.688252    1.091759   -1.551551
H      1.252002    0.515983    2.061727
H      1.698477   -1.189113    1.829508
H      1.101314    1.011942   -1.606152
H      1.922263    1.588219   -0.091670
H     -1.330733   -1.795703    0.614142
H     -0.534877   -0.941984    1.962252
H      0.834839   -1.426881   -1.698191
H     -0.391986    1.088860    0.411524
H     -0.877291   -2.051697   -0.865411
H      1.308630   -1.837492   -0.120941
H     -2.281879    1.765133    0.350250
H      3.091903    1.144184    0.864244
