43

C     -1.527890   -3.282408   -0.604190
C      0.222552   -1.515282    1.826839
C     -3.875499    2.778613   -0.317493
C      5.388699    2.577462   -0.254935
C     -4.459800    1.810820    0.448860
C     -2.976485    2.428470   -1.278686
C      5.399034    1.218679   -0.496346
C      4.207615    3.138939    0.182599
C     -4.133100    0.468504    0.243283
C     -2.656685    1.088055   -1.476206
C      4.273907    0.434473   -0.311052
C      3.072918    2.346321    0.369480
C     -2.864260   -1.301428   -0.965423
C      1.938772   -1.176100    0.078121
C     -1.713004   -1.836312   -0.183864
C      0.581199   -1.732022    0.370723
C     -3.227138    0.088459   -0.721660
C      3.090656    0.992126    0.126780
N     -0.466663   -1.160822   -0.432520
O      1.953282    0.203953    0.315878
H     -2.467949   -3.687544   -1.028585
H     -1.126150   -3.912232    0.212830
H     -0.792467   -3.286421   -1.432413
H      1.116243   -1.290830    2.445575
H     -0.321944   -2.396482    2.254755
H     -0.462658   -0.649085    1.960269
H     -4.128235    3.839939   -0.163847
H      6.284186    3.170823   -0.410014
H     -5.168930    2.111696    1.203120
H     -2.520759    3.196658   -1.879226
H      6.329404    0.782312   -0.839581
H      4.187153    4.192841    0.373067
H     -4.605240   -0.282494    0.856944
H     -1.952515    0.862339   -2.235666
H      4.269067   -0.633047   -0.498702
H      2.147324    2.778907    0.711292
H     -3.752512   -1.945399   -0.710109
H     -2.666118   -1.514482   -2.046785
H      2.690296   -1.643869    0.735722
H      2.220576   -1.415274   -0.969439
H     -1.895578   -1.825801    0.910157
H      0.598294   -2.833799    0.203649
H     -0.209595   -1.189259   -1.457342
