64

C      8.064263    1.069485   -0.359962
C      8.107030   -0.288678   -0.362480
C      7.095201    1.740268    0.380656
C     -4.941027   -0.325049   -3.716050
C     -4.015141   -1.218405   -4.182819
C      1.337777   -0.251764    2.207231
C      7.171152   -0.974631    0.382891
C      6.167390    1.044166    1.120115
C      0.127861    0.342726    1.514446
C     -4.779270    0.426380   -2.568452
C     -2.863706   -1.362832   -3.454760
C     -5.036122    0.636000    1.901036
C     -6.690708    1.176021    0.341520
C     -5.989184    0.041483    2.690585
C     -7.667615    0.579577    1.125908
C      5.232135   -1.152832    1.900662
C      1.216887    0.131059   -0.644911
C      2.610580    0.375615    1.698603
C      3.999548   -1.503979    1.114939
C      2.361647   -0.787103   -0.395265
C     -4.313907    1.891440   -0.135549
C      6.201077   -0.335095    1.125071
C     -5.370926    1.231390    0.678938
C     -7.318143    0.000414    2.322092
C      0.028894   -0.345667    0.173560
C     -3.599544    0.254464   -1.853286
C     -2.650566   -0.642935   -2.308503
C     -3.336230    0.952146   -0.716139
C     -1.484722   -0.797840   -1.606973
F     -8.249133   -0.600075    3.130324
N     -2.138016    0.736149   -0.071921
N      3.245309   -0.372361    0.657931
N     -1.233796   -0.100770   -0.483530
O     -0.638824   -1.638843   -2.067669
H      8.785193    1.669233   -0.935523
H      8.871583   -0.809149   -0.947568
H      7.085681    2.830274    0.363616
H     -5.877181   -0.169090   -4.256407
H     -4.212200   -1.783254   -5.106124
H      1.355844   -1.352411    2.099469
H      1.213268   -0.004403    3.296599
H      7.228771   -2.057747    0.363312
H      5.399238    1.536683    1.707904
H      0.397103    1.414759    1.299429
H     -0.782170    0.295824    2.108477
H     -5.517281    1.124097   -2.242858
H     -2.126733   -2.063062   -3.810602
H     -3.986972    0.668666    2.191950
H     -7.031283    1.621423   -0.575326
H     -5.733568   -0.423236    3.641587
H     -8.709116    0.555468    0.821454
H      4.992245   -0.685808    2.880281
H      5.740873   -2.107264    2.147472
H      1.447848    1.196191   -0.440211
H      0.930827    0.052487   -1.707359
H      2.429119    1.408836    1.336348
H      3.306125    0.448957    2.548940
H      3.374110   -2.183908    1.699273
H      4.334450   -2.064569    0.210161
H      2.981898   -0.927034   -1.310341
H      1.945186   -1.789238   -0.132684
H     -3.827313    2.629101    0.547225
H     -4.763287    2.475199   -0.962631
H      0.097574   -1.436951    0.370471
