47

C      0.708239   -3.673363    0.374219
C      1.560065    3.220268    0.007405
C      5.958950    0.895238   -0.862937
C     -4.300536    1.126569    0.200884
C     -3.708104   -1.069171    1.028547
C     -0.674234   -1.785059    0.252816
C     -1.217512   -0.948872   -0.801424
C      1.883510   -1.418356    0.108930
C      1.757440    1.010021    0.927276
C     -1.437804    1.077782    0.549949
C      0.829279   -2.145015    0.222938
C      0.951708    2.074408    0.230117
C      4.486822    0.735272   -0.974766
C     -2.094453    0.195931   -0.451775
C      2.296591    0.028683   -0.046017
C     -0.401475    1.885709   -0.187271
C     -3.519091   -0.152013   -0.134402
O      3.934995    1.111302   -2.035621
O     -0.819918    2.422549   -1.264460
O     -4.102501   -0.666559   -1.288249
O      3.705802    0.207311    0.001433
H      0.050139   -3.883245    1.292595
H      0.050747   -4.058497   -0.479948
H      1.488122   -4.341135    0.458774
H      1.034629    4.011900   -0.484866
H      2.607424    3.396256    0.314544
H      6.398142    0.800320   -1.882506
H      6.391355    0.037280   -0.278845
H      6.230533    1.865270   -0.381491
H     -4.158744    1.298103    1.282649
H     -5.372845    0.968517   -0.005986
H     -3.862982    1.949854   -0.399453
H     -3.151985   -0.754796    1.925294
H     -4.789226   -1.061907    1.366292
H     -3.534271   -2.129400    0.752218
H     -0.953378   -1.370687    1.245599
H     -1.288261   -2.746186    0.229242
H     -1.733467   -1.544681   -1.608513
H     -0.339778   -0.499315   -1.365528
H      2.974391   -1.873210    0.092691
H      1.013589    0.523233    1.623785
H      2.507755    1.515595    1.530170
H     -2.211821    1.862103    0.826112
H     -1.010814    0.606998    1.429137
H     -2.163154    0.823818   -1.400558
H      2.038039    0.431838   -1.073460
H     -4.011914    0.039337   -1.983881
