29

C     -3.418148   -1.275627    0.129823
C     -3.264278    0.950386   -0.788757
C      1.351468   -0.748453   -0.876195
C      2.729168   -0.730304   -1.064503
C      1.663197    0.678011    0.993907
C     -1.347719   -0.497301   -0.843070
C      0.813814   -0.039828    0.159749
C      3.553724   -0.009446   -0.221790
C      3.024391    0.707253    0.823535
C     -0.668597   -0.027737    0.396605
N     -2.785001   -0.395294   -0.784421
O      4.932941    0.032257   -0.377819
O      3.802354    1.434546    1.680438
O     -1.014037    1.324704    0.623700
H     -4.469962   -0.919920    0.271371
H     -3.501474   -2.283073   -0.337184
H     -2.938409   -1.359353    1.123767
H     -3.301451    1.422772    0.223076
H     -4.281198    0.936456   -1.262185
H     -2.601430    1.544996   -1.436856
H      0.739595   -1.330553   -1.569161
H      3.146194   -1.284778   -1.875860
H      1.237252    1.235722    1.808718
H     -1.129267   -1.604221   -0.948360
H     -0.974746    0.022409   -1.734916
H     -0.854067   -0.667922    1.267116
H      5.349521   -0.483948   -1.137745
H      4.802906    1.534520    1.658391
H     -0.596740    1.833724   -0.120508
