47

C     -0.116948    1.357708   -3.021466
C      1.758248   -2.307945    2.005678
C      4.490016    0.885343    1.383397
C     -2.939064    1.969095   -0.363537
C     -4.073792   -0.210204   -0.240463
C      0.413746    1.461451   -0.520393
C     -0.508949    0.823386    0.484211
C      1.306657   -0.265528   -1.968352
C      1.350069   -2.166311   -0.365330
C     -1.541303   -1.474227    0.429085
C      0.574894    0.810641   -1.790825
C      0.906527   -2.071172    1.041754
C      3.906249    0.022489    0.316845
C     -1.572237   -0.037879   -0.085045
C      2.042376   -0.919317   -0.873657
C     -0.468748   -1.717114    1.402629
C     -2.928399    0.592317    0.259443
O      4.732047   -0.591039   -0.414857
O     -0.780042   -1.606421    2.637494
O     -2.978739    0.646437    1.657693
O      2.548830   -0.111485    0.124025
H     -0.546665    2.360891   -2.820923
H     -0.814154    0.639881   -3.449877
H      0.677201    1.540514   -3.805027
H      1.448378   -2.242053    3.027768
H      2.773900   -2.570025    1.781947
H      3.760722    1.095080    2.174055
H      5.325337    0.301569    1.835564
H      4.956577    1.804046    0.959647
H     -2.351186    1.963272   -1.285886
H     -2.464183    2.728230    0.309608
H     -3.990158    2.292294   -0.514120
H     -3.954815   -0.621137   -1.254445
H     -4.965290    0.478391   -0.300081
H     -4.403752   -1.008612    0.484013
H      1.317839    1.787823    0.027671
H     -0.075087    2.477280   -0.726048
H      0.071063    0.222839    1.226886
H     -0.967810    1.624965    1.139803
H      1.373027   -0.707390   -2.995632
H      1.989063   -3.071184   -0.419362
H      0.511016   -2.359838   -1.077198
H     -1.401625   -2.184504   -0.406741
H     -2.540620   -1.749337    0.866987
H     -1.568645   -0.101586   -1.190354
H      2.966287   -1.353582   -1.384248
H     -3.247857    1.561951    1.928869
