40

C      4.486527   -0.264906    0.533064
C      3.555381    1.422564   -1.079245
C     -4.178766    2.232036   -0.072862
C      0.036158   -2.365347   -0.644589
C      0.074809   -1.751271    1.710957
C     -3.144026    0.170362    0.771846
C     -2.467685    0.791410   -1.435659
C     -2.195396   -0.938898    0.463287
C     -1.029438    0.428265   -1.175306
C      3.486120    0.847204    0.306929
C     -3.269729    1.055705   -0.213545
C     -0.898611   -0.199627    0.146016
C      2.117500    0.387626    0.662081
C      0.222608   -1.177569    0.313890
O      1.458357    0.972592    1.560883
O      1.493602   -0.679760    0.049630
H      4.803478   -0.338824    1.590251
H      5.412972    0.019325   -0.040004
H      4.165210   -1.230752    0.123547
H      4.411289    0.958604   -1.619182
H      2.605782    1.189815   -1.591849
H      3.690966    2.533682   -1.080422
H     -3.701369    2.957629    0.611530
H     -5.092187    1.856919    0.448373
H     -4.415180    2.640434   -1.054465
H      0.633012   -3.239618   -0.286035
H      0.408042   -2.120681   -1.653063
H     -1.000879   -2.682320   -0.714730
H     -0.411431   -2.747047    1.711976
H      1.123861   -1.814148    2.114833
H     -0.433110   -1.016413    2.373971
H     -3.666082    0.231078    1.705771
H     -2.948758   -0.110549   -1.920432
H     -2.554597    1.665898   -2.122822
H     -2.600594   -1.448177   -0.434171
H     -2.067192   -1.626500    1.320314
H     -0.451998    1.374709   -1.298727
H     -0.668992   -0.257526   -1.999789
H      3.753374    1.658467    1.012866
H     -0.743028    0.615609    0.904880
