27

C     -0.153742    1.392797   -1.377644
C     -0.867408    1.528793    0.965023
C      2.101874    0.500799    0.498217
C     -0.574264   -1.332834   -1.308775
C      0.872315   -1.193521   -0.864628
C     -1.306469   -0.539489   -0.273359
C     -1.117291   -1.245616    1.052353
C      0.287092   -0.932908    1.449891
C     -0.340818    0.645951   -0.105549
C      0.840377   -0.194941    0.302512
Cl    -2.297550   -0.778571    2.255838
O      0.897515   -1.191555    2.459641
H      0.535209    0.937401   -2.092173
H      0.277793    2.395132   -1.118447
H     -1.158973    1.603863   -1.815628
H     -1.986219    1.618388    0.840405
H     -0.688564    1.191371    1.989981
H     -0.470464    2.562499    0.838441
H      2.944013   -0.228273    0.328345
H      2.212677    0.857559    1.534899
H      2.230356    1.292878   -0.252013
H     -0.687729   -0.909124   -2.318756
H     -0.865771   -2.417108   -1.307831
H      1.248509   -2.166275   -0.456312
H      1.527624   -0.783917   -1.634675
H     -2.307786   -0.248897   -0.502688
H     -1.152307   -2.364401    0.912932
