43

C      5.999572    1.018334   -0.336829
C     -3.310747    1.567574   -0.533923
C     -4.181987   -0.687052   -0.181005
C     -1.788656   -0.540275   -2.144891
C      4.593446    0.793229    0.186517
C      4.152222   -0.601515   -0.177357
C      2.779308   -0.871249    0.316942
C     -1.940705   -1.185963    1.508493
C     -1.590395   -1.671257    0.096367
C     -1.252545    1.161463    1.115615
C     -2.432916    0.219741    1.371434
C     -0.678125    0.552086   -0.168276
C      1.720221    0.002565   -0.217880
C     -2.990930    0.194424   -0.059347
C     -1.742976   -0.394232   -0.694674
O      1.837908    0.911621   -1.045936
O      0.437951   -0.231782    0.274518
H      5.920121    1.237882   -1.419642
H      6.539557    0.051969   -0.239579
H      6.479319    1.850754    0.192980
H     -3.731693    2.133626    0.343541
H     -4.160990    1.528267   -1.267096
H     -2.469914    2.098621   -1.011088
H     -4.458841   -0.737295   -1.250685
H     -4.054932   -1.689525    0.268109
H     -5.021202   -0.206948    0.350999
H     -2.826530   -0.314644   -2.523289
H     -1.133954    0.233874   -2.642015
H     -1.465447   -1.522959   -2.555893
H      4.651644    0.832025    1.311825
H      3.880609    1.518084   -0.199805
H      4.875402   -1.319158    0.287243
H      4.246845   -0.763748   -1.271285
H      2.776833   -0.916814    1.426952
H      2.496935   -1.919860    0.000900
H     -0.996081   -1.211222    2.103106
H     -2.712533   -1.847408    1.899558
H     -0.529723   -1.994210    0.038870
H     -2.239234   -2.477580   -0.234265
H     -1.625732    2.156389    0.855164
H     -0.534680    1.169067    1.933234
H     -3.127709    0.568004    2.103571
H     -0.388718    1.305098   -0.897024
