27

C     -1.829218    0.273847    1.124959
C     -3.535863   -0.687728   -1.002210
C      3.871469   -0.179817    0.571531
C      3.558711    0.890725   -0.244829
C      2.865065   -1.008075    1.027332
C      2.279337    1.161960   -0.620839
C      1.544080   -0.741632    0.647980
C     -1.275646   -0.294684   -0.189486
C      1.259448    0.327790   -0.164777
C     -0.111922    0.537823   -0.593533
N     -2.290802   -0.057634   -1.198791
O     -0.308253    1.520662   -1.391615
Cl     0.686022    0.000000    0.000000
H     -1.040027    0.703133    1.730333
H     -2.553194    1.099767    0.863652
H     -2.411735   -0.510188    1.629031
H     -4.358797   -0.175176   -1.593980
H     -3.856633   -0.738268    0.054305
H     -3.510679   -1.712633   -1.421318
H      4.891861   -0.355266    0.838039
H      4.350884    1.531495   -0.598975
H      3.122164   -1.859423    1.674729
H      2.004608    2.012991   -1.268241
H      0.759277   -1.384113    1.010317
H     -1.002158   -1.326525   -0.030371
H     -2.421978    0.970971   -1.306527
H     -0.686022    0.000000    0.000000
