38

C     -4.431441   -0.473704    1.969580
C      1.602170   -2.024509   -1.448365
C      0.260095   -1.950325   -1.152595
C      2.459430   -1.053019   -0.947951
C     -2.829556   -0.855565    0.176211
C     -1.651222   -0.889314   -0.085014
C      6.050167    1.629962   -1.290857
C      6.420791    0.308078    0.660375
C      4.701074    1.613026   -1.004988
C      5.087514    0.296550    0.934921
C      0.642994    0.009418    0.103241
C     -4.268381   -0.789165    0.492828
C     -0.244905   -0.932049   -0.371254
C      6.923127    0.969621   -0.448663
C      4.197929    0.957875    0.094424
C      1.993757   -0.033868   -0.173215
C     -6.300362    0.416918   -0.227388
F      8.257804    0.986845   -0.732198
N     -6.812548    1.523630   -0.636889
N     -4.924234    0.188312   -0.324645
O     -7.201315   -0.511562    0.306648
O     -4.200659    0.908270   -1.211402
O      2.842112    0.963832    0.346561
H     -5.454015   -0.726641    2.292454
H     -3.727101   -1.149551    2.513070
H     -4.149968    0.567859    2.127359
H      1.963777   -2.828986   -2.058815
H     -0.378719   -2.732202   -1.564696
H      3.524325   -1.089697   -1.167625
H      6.467573    2.140504   -2.152479
H      7.098307   -0.219074    1.336437
H      4.046457    2.136976   -1.680563
H      4.679181   -0.221717    1.806618
H      0.296273    0.827445    0.720136
H     -4.718929   -1.804778    0.301191
H     -6.187682    2.246248   -1.041593
H     -7.976427   -0.216684    0.898345
H     -4.057395    1.811040   -0.801219
