40

C     -4.260103    1.924269    0.063199
C     -3.720987    0.322383   -1.724427
C      4.706005    1.267658   -0.767750
C     -0.230159   -2.604679    0.174051
C     -0.171269   -1.157812    2.134082
C      2.394748    1.460638   -0.050651
C      3.089488   -0.714502   -0.828284
C      0.993844    0.993593    0.228179
C      2.113452   -1.164776    0.272990
C     -3.703202    0.582753   -0.252527
C      3.357329    0.710498   -0.527763
C      0.813307   -0.448415   -0.030379
C     -2.339436    0.374680    0.336461
C     -0.362160   -1.122787    0.643607
O     -1.860544    1.321541    0.995353
O     -1.611713   -0.746005    0.203239
H     -3.868288    2.366391    1.001454
H     -5.358374    1.829116    0.199823
H     -4.123044    2.606048   -0.814825
H     -3.699650    1.239305   -2.345856
H     -4.628490   -0.293255   -1.984655
H     -2.846536   -0.323036   -1.972620
H      4.929237    1.392510   -1.864316
H      5.516403    0.617648   -0.377161
H      4.849071    2.255651   -0.264847
H      0.359777   -3.167881    0.920331
H      0.181151   -2.596817   -0.844813
H     -1.262085   -3.003468    0.123510
H      0.395725   -2.057480    2.452200
H      0.283670   -0.224834    2.529294
H     -1.188624   -1.275461    2.604317
H      2.594401    2.499661    0.168868
H      3.986758   -1.337638   -0.841456
H      2.571757   -0.744543   -1.826867
H      0.364802    1.640833   -0.442046
H      0.793688    1.331993    1.265552
H      2.559429   -0.757340    1.227664
H      2.030186   -2.251182    0.302484
H     -4.352599   -0.190756    0.252505
H      0.703038   -0.554501   -1.155798
