73

C      0.394874   -4.445101    0.697236
C     -6.726573    3.141152    0.313669
C      7.492023    1.576927    1.196675
C     -1.713082    3.688656   -1.984330
C      3.832721    1.348925   -2.948777
C      0.822621   -3.550740   -0.473598
C     -4.670624   -1.691377   -0.326136
C      2.747455    0.411050    3.315406
C     -4.388708   -2.528384   -1.566488
C      1.906294   -0.814189    3.214102
C     -0.885292   -1.501148   -1.588536
C      0.099058    0.160926    0.160750
C     -5.096163    0.790784   -0.256437
C      4.668338    0.963273    1.758810
C     -2.617839    1.164810   -1.398316
C      2.907176    0.868964   -0.366423
C      1.721140   -1.872220    1.131733
C      0.778185   -2.150515    0.013523
C     -4.278525   -0.272672   -0.549656
C      3.346786    0.679386    1.991270
C      0.021205   -1.177397   -0.454207
C     -3.004324   -0.119821   -1.132145
C      2.456884    0.633314    0.903776
C     -2.313865   -1.341958   -1.384396
C      1.075451    0.318724    1.255997
C     -4.675037    2.079359   -0.536378
C      5.163954    1.206986    0.496374
C     -3.438719    2.259101   -1.106013
C      4.243641    1.149760   -0.546325
N     -3.187480   -2.125317   -2.277747
N      1.099376   -0.923033    2.026953
O     -5.439333    3.206134   -0.270860
O      6.485703    1.493724    0.239406
O     -2.982339    3.524701   -1.401369
O      4.701507    1.388300   -1.823500
H     -0.366657   -3.902529    1.261080
H     -0.034395   -5.386339    0.292931
H      1.244220   -4.627737    1.384313
H     -6.663639    3.123681    1.423001
H     -7.299028    2.262453   -0.008968
H     -7.336863    4.031299    0.063413
H      7.713303    0.613388    1.709236
H      7.262260    2.335304    1.995493
H      8.434349    1.938041    0.730129
H     -1.672528    3.369760   -3.049075
H     -1.472397    4.788586   -1.891257
H     -0.905848    3.141523   -1.444593
H      4.492090    1.547434   -3.833911
H      3.320374    0.383464   -3.030752
H      3.077942    2.148729   -2.936027
H      1.932470   -3.790176   -0.575207
H      0.385565   -3.811810   -1.397502
H     -5.783888   -1.689435   -0.160252
H     -4.220998   -2.110258    0.584943
H      3.548933    0.231774    4.059284
H      2.132909    1.287755    3.661945
H     -5.272914   -2.435059   -2.227101
H     -4.281562   -3.598473   -1.295338
H      2.588009   -1.703278    3.288136
H      1.256306   -0.892291    4.134494
H     -0.480321   -0.832943   -2.432719
H     -0.704243   -2.497826   -2.031897
H      0.264852    0.884021   -0.685256
H     -0.937734    0.334781    0.613303
H     -6.076926    0.636778    0.195017
H      5.369930    1.000893    2.603681
H     -1.658954    1.293235   -1.859793
H      2.196276    0.821880   -1.172105
H      2.621007   -1.371590    0.709294
H      2.057601   -2.784482    1.666809
H     -2.485578   -1.966910   -0.385826
H      0.725439    1.107821    1.981611
H     -3.515853   -1.422547   -3.001211
