46

C      2.321746   -2.239118    0.510413
C      0.846745   -2.002804    0.658535
C     -3.156934    1.581861   -0.868078
C     -3.856928   -0.370001    0.519136
C     -4.633992    1.871518   -0.993957
C     -5.290439    0.079619    0.360057
C      2.106398   -0.453808   -1.198558
C     -2.896841    0.819225    0.397696
C      3.094118   -1.521234   -0.554167
C      0.553850   -0.429670    0.741726
C     -0.672430   -0.196807    0.031194
C      3.037566    0.448537    0.587213
N     -5.358576    1.494625    0.191884
N     -1.602782    0.388805    0.634614
N      1.795535   -0.048195    0.194770
N      4.022830   -0.489702   -0.013756
O     -0.902276   -0.569018   -1.264978
O      3.381380    1.427992    1.277004
O      6.403971    1.273305    1.720250
O      7.362857    1.068028   -0.644189
O      5.230133    2.175318   -0.443145
O      5.332178   -0.438059   -0.064787
S      6.023169    1.037723    0.078451
O     -0.000260    0.387189   -0.000000
H      2.790067   -1.989207    1.490484
H      2.458861   -3.318224    0.358584
H      0.272777   -2.331649   -0.182020
H      0.491722   -2.372156    1.615327
H     -2.588491    2.537084   -0.801034
H     -2.818985    1.010301   -1.726170
H     -3.576046   -1.122827   -0.229626
H     -3.727840   -0.795140    1.539652
H     -4.796754    2.933657   -1.234883
H     -5.051450    1.276298   -1.841702
H     -5.902945   -0.248960    1.218050
H     -5.708509   -0.414383   -0.543755
H      2.746468    0.238630   -1.735500
H      1.324299   -0.946089   -1.716630
H     -3.197389    1.483987    1.277436
H      3.503987   -2.171332   -1.273652
H      0.515259   -0.158943    1.827670
H     -5.134865    2.043550    1.029970
H     -1.687599   -1.032768   -1.649999
H      6.946155    0.470031    2.006349
H      0.802985   -0.193506    0.000000
H     -0.802725   -0.193683   -0.000000
