46

C      2.596974    0.557170    1.215679
C      1.404944    0.005547    1.905782
C     -3.276980    0.298991    0.745752
C     -3.297735   -0.766939   -1.444187
C     -3.733396    1.419150   -0.172328
C     -4.775547   -0.411911   -1.321916
C      1.249038    0.284967   -0.747617
C     -2.776397   -0.903035   -0.020212
C      2.668955    0.779952   -0.238712
C      0.790391   -1.231686    1.118675
C     -0.658653   -1.115528    1.040731
C      2.639728   -1.446856   -0.753861
N     -4.846848    1.001911   -1.002619
N     -1.343137   -1.013761   -0.039677
N      1.535611   -1.004951   -0.053798
N      3.454401   -0.229392   -0.998473
O     -1.362737   -1.114490    2.241828
O      3.001928   -2.566436   -1.150901
O      5.193156    1.954283   -0.072601
O      6.994442    0.881272   -1.539706
O      6.157987   -0.470773    0.277110
O      4.571410   -0.122166   -1.710677
S      5.771021    0.536294   -0.742865
O     -0.003814    0.385921   -0.000000
H      2.807475    1.550773    1.712236
H      3.488153   -0.070031    1.518769
H      1.640735   -0.376909    2.889943
H      0.580483    0.714629    1.951970
H     -4.152929    0.040610    1.388265
H     -2.517541    0.731664    1.410197
H     -2.744024    0.053016   -1.935377
H     -3.142628   -1.709495   -1.967863
H     -2.888695    1.831998   -0.751690
H     -4.104216    2.231376    0.486642
H     -5.166767   -0.984450   -0.456199
H     -5.347806   -0.675600   -2.210555
H      1.239148    0.157204   -1.805858
H      0.483074    0.866153   -0.257811
H     -3.267161   -1.802629    0.425045
H      2.856296    1.787787   -0.516247
H      1.052371   -2.134643    1.695790
H     -5.749449    1.229318   -0.534554
H     -2.323370   -1.485064    2.303593
H      5.298294    2.722682   -0.673465
H      0.809300   -0.191625    0.000000
H     -0.805486   -0.194296   -0.000000
