34

C      5.445703   -0.759033   -0.120589
C     -3.511916   -0.339917   -1.750123
C     -3.074636   -1.480673    0.349548
C      3.948598   -0.662174   -0.226619
C      1.376555    1.866880    0.241445
C     -2.070026    1.142078    1.445282
C      1.873735    0.652557   -0.051836
C      3.307929    0.457180    0.022284
C     -2.398223    0.918933    0.019661
C     -0.061034    2.041290    0.162082
C      0.922574   -0.360611   -0.430647
C     -2.540770   -0.442602   -0.565951
C     -0.945508    0.927815    0.541013
C     -0.462784   -0.418450    0.102614
Cl     4.331569    1.829669    0.485771
O     -0.516202    3.155475   -0.233897
O      1.268485   -1.242543   -1.250711
O     -0.477382   -1.343893    1.123620
O     -1.277548   -0.788692   -0.979049
H      5.744272   -0.722328    0.926549
H      5.797855   -1.687762   -0.573073
H      5.887275    0.105517   -0.693979
H     -3.141361    0.357353   -2.512011
H     -4.446251    0.100825   -1.324597
H     -3.770649   -1.336005   -2.133763
H     -2.797529   -1.402983    1.394489
H     -4.194957   -1.569607    0.296270
H     -2.709522   -2.487463   -0.006233
H      3.389759   -1.531198   -0.509305
H      2.036686    2.669097    0.521794
H     -2.210515    2.189492    1.799504
H     -2.367862    0.407487    2.226822
H     -2.621498    1.767089   -0.645980
H      0.265178   -2.012801    1.038502
