51

C      6.493775   -0.514166   -1.330375
C     -6.516095   -0.803039    1.611936
C      2.945554   -0.803056    2.123349
C     -3.090875    1.797249   -0.847648
C      4.120121   -1.242017    2.714179
C     -4.274139    2.538732   -0.957936
C      4.123948   -0.447262    0.131630
C     -4.187791    0.148854    0.417644
C     -0.199289    0.176251   -1.830240
C     -0.230568   -1.131869    1.071566
C      2.902791   -0.397489    0.835293
C     -3.040244    0.616919   -0.170347
C     -0.550038    0.613634   -0.435606
C      0.432099    0.106049    0.616128
C      5.311501   -1.290136    2.024837
C     -5.430855    2.060597   -0.361468
C      5.288760   -0.879815    0.709714
C     -5.384020    0.872126    0.321497
C      1.770348    0.069258    0.048130
C     -1.803581   -0.142700   -0.059220
O     -0.191259   -1.199628   -1.934501
O      6.492842   -1.732164    2.620579
O     -6.637159    2.763149   -0.442656
O      2.107432    1.360446   -0.419850
O      6.490494   -0.927699    0.013611
O     -6.558667    0.419481    0.907873
O     -1.571005   -0.662897    1.211977
H      7.565209   -0.404585   -1.633950
H      6.046540    0.494542   -1.469701
H      5.972651   -1.194784   -2.012178
H     -6.310583   -1.674394    0.961552
H     -7.451650   -0.987507    2.179534
H     -5.702530   -0.763302    2.377337
H      2.050269   -0.771460    2.709446
H     -2.243121    2.224111   -1.332846
H      4.112643   -1.563004    3.761038
H     -4.282761    3.472931   -1.502494
H      4.192071   -0.142094   -0.906590
H     -4.221795   -0.775900    0.968339
H      0.761839    0.556957   -2.193053
H     -0.992708    0.552669   -2.500450
H      0.025722   -1.554830    2.030931
H     -0.302820   -1.919108    0.281635
H     -0.605570    1.693430   -0.311800
H      0.405807    0.828858    1.470856
H      1.785001   -0.628947   -0.878430
H     -1.938132   -1.056788   -0.707686
H     -0.870794   -1.541012   -2.584764
H      7.331158   -1.742203    2.058180
H     -6.625097    3.631916   -0.954577
H      2.484571    1.895697    0.320327
