37

C     -3.615879    2.393007    0.966967
C      1.491697   -2.112181   -1.350025
C      5.105442    1.006928    0.014211
C      4.045017    1.383223   -0.782315
C      4.940425   -0.142449    0.781245
C     -4.858381   -0.485056   -1.049806
C     -3.752775   -1.296493   -1.033344
C     -4.794237    0.733179   -0.381663
C      2.871453    0.660109   -0.823273
C      3.767980   -0.846746    0.726957
C     -2.591542   -0.904575   -0.360017
C     -3.638835    1.087487    0.269378
C      1.494402   -1.296597   -0.055188
C      2.705226   -0.479259   -0.064210
C     -2.505591    0.292939    0.305732
C     -0.151399    0.040703    1.081736
N      0.278175   -0.544201    0.021644
N     -1.362672    0.744442    1.011121
O      0.585398   -0.043395    2.236994
H     -2.856346    3.065346    0.480784
H     -3.304358    2.268543    2.024665
H     -4.579659    2.900217    0.944838
H      2.109379   -3.003461   -1.195032
H      0.471783   -2.318153   -1.685871
H      1.992753   -1.484889   -2.140333
H      6.034533    1.566161    0.056403
H      4.154875    2.284197   -1.393131
H      5.773744   -0.433425    1.403700
H     -5.767109   -0.771005   -1.565785
H     -3.802269   -2.251433   -1.556767
H     -5.684027    1.346655   -0.415681
H      2.045458    0.961874   -1.450083
H      3.708823   -1.744859    1.360475
H     -1.766225   -1.569879   -0.374131
H      1.522508   -1.990681    0.799164
H     -1.415736    1.673017    1.526627
H      1.347969   -0.689291    2.360586
