37

C      4.017527    2.050644    0.077211
C     -1.795136   -2.097250   -0.841473
C     -4.931630    1.622965    0.380150
C     -3.805756    1.802127    1.167336
C     -4.930630    0.524521   -0.461159
C      4.616390   -1.449701    1.249545
C      3.404655   -2.036815    1.003485
C      4.786285   -0.114184    0.936536
C     -2.728290    0.950079    1.136218
C     -3.861511   -0.344663   -0.510219
C      2.388613   -1.279397    0.450612
C      3.757796    0.621272    0.385726
C     -1.626467   -1.055765    0.239568
C     -2.774317   -0.124974    0.285684
C      2.512641    0.038204    0.127410
C      0.189345    0.283551   -0.672848
N     -0.353802   -0.418111    0.217228
N      1.488349    0.811404   -0.443650
O     -0.482931    0.532854   -1.859415
H      4.275245    2.187525   -1.009230
H      4.902383    2.398139    0.637599
H      3.178310    2.713303    0.372353
H     -0.850512   -2.658964   -0.988735
H     -2.050433   -1.669195   -1.831308
H     -2.567466   -2.844891   -0.596228
H     -5.759090    2.315027    0.432948
H     -3.838550    2.679632    1.820966
H     -5.804708    0.349679   -1.099691
H      5.404665   -2.050249    1.682056
H      3.281812   -3.083813    1.252376
H      5.766767    0.338561    1.141688
H     -1.892282    1.163618    1.782438
H     -3.927663   -1.194430   -1.199260
H      1.466374   -1.811515    0.279132
H     -1.674891   -1.633590    1.211736
H      1.704597    1.825930   -0.716553
H     -1.485690    0.658472   -1.814569
