44

C      2.164408   -0.485562   -1.387766
C      3.852172   -0.793222    0.956093
C      4.341463    1.328892   -0.315334
C     -2.471045   -3.291488   -0.191214
C     -0.609665    2.797961   -0.465581
C     -4.828114    1.046603   -0.255487
C     -5.206825   -0.258751   -0.459548
C     -3.509252    1.381475    0.045007
C     -4.252481   -1.247100   -0.362040
C      1.084233   -0.082861    0.864793
C      1.999970    0.404547   -0.191510
C     -2.572853    0.358443    0.134991
C     -0.299300   -0.340994    0.541417
C     -2.923213   -0.945547   -0.062837
C     -1.237683    0.651240    0.440580
C     -0.730429   -1.646982    0.327462
C      3.370378    0.572162    0.522255
N     -2.006081   -1.936664    0.033785
O      0.048299   -2.644498    0.396680
O      3.056523    1.282079    1.696769
O     -0.964252    1.995971    0.627727
H      1.466158   -1.309635   -1.478713
H      2.072341    0.096986   -2.352603
H      3.216521   -0.870438   -1.426054
H      4.915962   -0.867753    0.645425
H      3.844626   -0.919139    2.065910
H      3.322011   -1.624490    0.459910
H      4.954797    1.958033    0.395491
H      5.044090    0.630151   -0.815308
H      3.815654    1.998696   -1.028607
H     -3.275915   -3.556008    0.532695
H     -1.640872   -4.022314   -0.092760
H     -2.899497   -3.345462   -1.221087
H     -1.390898    3.542795   -0.683122
H      0.359596    3.287112   -0.192054
H     -0.452205    2.121348   -1.345766
H     -5.544712    1.872079   -0.321534
H     -6.248410   -0.514545   -0.695909
H     -3.207460    2.394613    0.212858
H     -4.519336   -2.293578   -0.518191
H      1.525532   -1.023376    1.335321
H      1.198726    0.657519    1.727608
H      1.781069    1.415171   -0.554668
H      3.355971    2.226531    1.642142
