94

C     -8.523861    4.799340   -0.442750
C    -10.317821   -2.230341    0.329695
C     -0.472306   -2.078802   -3.565188
C      0.806374   -0.439593    3.309013
C     -7.742482    2.199545    0.176468
C     -8.272750   -0.103631    0.446200
C     -1.363032   -1.289255   -1.044093
C     -0.924044   -0.752511    1.221091
C      3.942257   -3.591428   -1.908970
C     -4.961640   -0.791379   -0.973263
C     -4.032818    1.517270    1.509995
C      9.692656    2.721566    2.273159
C      9.693154    0.474920    1.148684
C     -7.346400    0.900809    0.490098
C     -1.837114   -0.896405    0.191738
C     -5.066369    0.590773   -0.367808
C     -3.701436    0.780359    0.226820
C     -9.051295    2.439332   -0.168421
C     -9.599052    0.121958    0.099373
C     -0.011111   -1.534051   -1.251157
C      0.398880   -0.995132    1.006030
C      4.619091   -2.275752   -1.697084
C     -9.984517    1.414273   -0.210387
C      5.405479   -2.257899   -0.377600
C      4.192120   -0.295409    0.355145
C     -5.943037    0.598427    0.858581
C     -3.248677   -0.616072    0.472705
C      0.904290   -1.392756   -0.228926
C      5.570679   -0.763443   -0.061301
C      7.654472    1.526573    1.440441
C      3.224637   -0.694972   -0.718764
C      7.515955    0.335661    0.549541
C      9.128009    1.876361    1.186638
O      4.909334   -4.583121   -1.699840
O     11.037163    2.958889    1.988481
O    -11.299771    1.677317   -0.560245
O      6.609738   -2.899657   -0.482572
O      4.203203    1.088595    0.593576
O      6.927617    2.631250    1.021133
O      9.199786    2.460587   -0.061148
O     -9.449506    3.729871   -0.479824
O    -10.554253   -0.885289    0.048510
O      0.443431   -1.928248   -2.501040
O      1.308996   -0.844434    2.055163
O     -5.387602    1.570488    1.654887
O     -4.142229   -1.495332   -0.130219
O      8.700208   -0.353482    0.708989
O      3.830178   -1.168077   -1.858611
O      2.244864   -1.609993   -0.332547
O      6.487005   -0.517062    0.921331
H     -7.823161    4.798123   -1.297525
H     -7.974174    4.704160    0.538855
H     -9.074955    5.784133   -0.459341
H    -10.187380   -2.368354    1.418234
H    -11.221808   -2.805996   -0.002804
H     -9.419712   -2.632514   -0.202841
H     -1.315756   -2.770157   -3.307670
H      0.086803   -2.461046   -4.468718
H     -0.920236   -1.089487   -3.765822
H      0.029184   -1.209774    3.585832
H      0.309474    0.557748    3.202064
H      1.610760   -0.404428    4.065655
H     -6.974276    2.958301    0.225504
H     -8.009853   -1.135960    0.682649
H     -2.058982   -1.411191   -1.879599
H     -1.296604   -0.437532    2.209241
H      3.138862   -3.794314   -1.170596
H      3.628069   -3.673820   -2.951418
H     -4.606272   -0.708444   -1.998564
H     -5.975751   -1.269791   -0.948357
H     -3.531977    0.996643    2.378609
H     -3.559301    2.521265    1.451729
H      9.652621    2.249830    3.259201
H      9.194740    3.716159    2.241466
H      9.890018    0.221120    2.234736
H     10.665279    0.391049    0.649919
H     -5.357936    1.364570   -1.075754
H     -3.028856    1.377665   -0.423082
H      5.420590   -2.208357   -2.485261
H      4.826733   -2.685118    0.443593
H      3.948108   -0.847263    1.292710
H     -5.934250   -0.391548    1.369431
H     -3.401997   -0.790346    1.585090
H      5.805237   -0.209724   -1.017160
H      7.542563    1.291481    2.507202
H      2.680630    0.252629   -0.999677
H      7.438747    0.670435   -0.500782
H      4.975194   -4.819228   -0.737106
H     11.168348    2.866709    1.012655
H    -11.968953    0.931451   -0.590629
H      6.908612   -2.985100   -1.430081
H      3.484560    1.459628   -0.008517
H      6.424420    3.068208    1.778907
H      9.396188    1.797546   -0.772219
