77

C      6.092947   -2.165470    0.036804
C      4.775487   -2.260771   -0.358903
C     -4.230389   -3.744690    0.551735
C      1.592958    4.677739   -0.290737
C     -4.022293   -2.849347    1.743729
C      0.551398    3.906115    0.437792
C      6.658597   -0.935745    0.299279
C     -1.778053    3.746225    1.033026
C      0.084115   -1.113741   -1.945413
C     -4.028761   -1.391550    1.399770
C     -0.859534    4.204976   -0.085089
C      1.159188   -1.891761   -2.723435
C     -1.221439    2.576602    1.784878
C     -2.947037   -1.035777    0.346887
C     -1.612403   -1.232772    0.962445
C      2.497554   -1.257121   -2.437273
C      0.463400   -1.098442   -0.509178
C     -0.479394   -0.413547    0.431286
C      2.654161   -1.339388   -0.912873
C     -0.184071    1.793324    1.049665
C      4.573211    0.030039   -0.240111
N      7.903644   -0.837903    0.674036
N     -3.083790    3.459486    0.466786
N     -1.141209   -1.794922   -2.187583
N      5.856806    0.133555    0.146273
N      4.014133   -1.143542   -0.496270
O     -4.258172   -5.064669    1.012450
O      2.834530    4.330485    0.237587
O     -5.106303   -3.074942    2.608223
O     -5.293486   -1.135876    0.806252
O     -1.042435    5.538274   -0.359818
O      0.933722   -1.754578   -4.099804
O     -0.732603    3.035363    3.008229
O     -3.188959    0.332487    0.076633
O     -1.323298   -2.571439    1.148587
O      3.528243   -1.881560   -3.096181
O      3.795101    1.174988   -0.380248
O      0.707206    2.552151    0.319540
O      1.747008   -0.443018   -0.405015
O     -0.756082    0.892169    0.173902
H      6.717752   -3.039468    0.153180
H      4.334510   -3.248461   -0.565969
H     -3.446098   -3.655139   -0.214398
H     -5.229388   -3.511081    0.140798
H      1.449166    5.760521   -0.087859
H      1.563817    4.541810   -1.390761
H     -3.120796   -3.140151    2.355705
H      0.548287    4.254954    1.490980
H     -1.911624    4.629768    1.698463
H      0.073371   -0.110463   -2.419502
H     -3.943193   -0.795156    2.299539
H     -1.002416    3.552801   -0.972596
H      1.106654   -2.942471   -2.422617
H     -2.061685    1.895055    2.032413
H     -3.172936   -1.660896   -0.511303
H     -1.799347   -0.885794    2.076510
H      2.401723   -0.173165   -2.675987
H      0.656751   -2.127499   -0.165922
H      0.211339   -0.330148    1.396973
H      2.301872   -2.376321   -0.646473
H      0.404457    1.231103    1.797664
H      8.333635    0.090305    0.873084
H     -3.400113    4.291099   -0.052204
H     -3.769949    3.265000    1.237278
H     -0.970892   -2.832784   -2.202573
H     -1.538255   -1.546256   -3.126878
H     -4.980661   -5.587373    0.559606
H      3.583429    4.570780   -0.355360
H     -5.077728   -3.960095    3.021283
H     -5.946336   -0.943532    1.541991
H     -1.731846    5.585636   -1.096139
H      1.255881   -0.901215   -4.448347
H      0.101151    2.537837    3.192247
H     -3.842667    0.367903   -0.676257
H     -1.107000   -3.030674    0.322246
H      4.367166   -1.405943   -2.853032
H      3.508270    1.678107    0.466353
