94

C      9.304197   -2.744727   -1.394252
C      9.368929    4.470020   -0.615298
C      0.231513    0.178388    4.159663
C     -0.811108    1.032117   -2.899467
C      7.933319   -0.336869   -0.916396
C      7.991365    2.020830   -0.666422
C      1.208041    0.449018    1.581928
C      0.876035    0.727961   -0.727016
C     -4.218706   -2.659184    3.804126
C      4.678016   -1.156750    0.278948
C      4.177382    1.616417   -1.840709
C     -8.434515    1.511529   -0.367406
C     -9.380957   -0.699287    0.086682
C      7.263718    0.850627   -0.680383
C      1.755829    0.578758    0.322711
C      5.076824   -0.308901   -0.883282
C      3.720263    0.349698   -1.207071
C      9.292278   -0.304464   -1.126195
C      9.345586    2.070624   -0.874261
C     -0.151228    0.464290    1.807972
C     -0.506870    0.747020   -0.527972
C     -4.249145   -2.051260    2.439699
C      9.997405    0.870994   -1.108348
C     -5.612962   -1.747962    1.929755
C     -4.443126   -0.345163    0.283771
C      5.820393    0.933091   -0.444904
C      3.212679    0.553429    0.186042
C     -1.034229    0.616601    0.728556
C     -5.530264   -1.335362    0.481677
C     -7.986769   -0.509023   -1.805502
C     -3.201935   -0.516577    1.084797
C     -7.505029   -1.512831   -0.756928
C     -8.992175    0.271864   -0.997880
O     -2.890756   -3.041071    4.080800
O     -9.408311    2.143716    0.416581
O     11.376741    0.889552   -1.324208
O     -6.414716   -2.872613    2.088113
O     -4.066346   -0.416571   -1.080592
O     -8.573669   -1.154949   -2.889710
O    -10.072597    0.597531   -1.817080
O      9.985191   -1.494307   -1.365193
O     10.061693    3.269328   -0.855909
O     -0.675176    0.331788    3.086465
O     -1.344699    0.897673   -1.598596
O      5.286120    1.988817   -1.125451
O      3.709517   -0.462493    0.987440
O     -8.766910   -1.913722   -0.240342
O     -3.407807   -0.943442    2.402567
O     -2.369324    0.619455    1.042234
O     -6.792648   -0.820718    0.181142
H      8.665723   -2.835646   -2.291356
H     10.074229   -3.545861   -1.382297
H      8.683662   -2.802077   -0.478388
H     10.099920    5.304540   -0.634406
H      8.826216    4.494028    0.347564
H      8.585295    4.689117   -1.390423
H     -0.289099   -0.033211    5.118085
H      0.913858    1.053124    4.246157
H      0.912614   -0.704988    4.005387
H     -0.212133    0.092914   -3.072520
H     -0.112532    1.858882   -3.025711
H     -1.616278    0.984415   -3.662355
H      7.341845   -1.236582   -0.922439
H      7.481051    2.977945   -0.481580
H      1.887324    0.330641    2.428297
H      1.306955    0.829799   -1.727414
H     -4.799677   -3.617326    3.837150
H     -4.616446   -2.019660    4.599738
H      5.574290   -1.399668    0.882578
H      4.239943   -2.094040   -0.116416
H      4.492853    1.403188   -2.903106
H      3.422377    2.429927   -1.811447
H     -7.563305    1.348705    0.290378
H     -8.063287    2.201885   -1.180200
H     -9.054000   -0.404306    1.095070
H    -10.501310   -0.803058    0.045897
H      5.508904   -0.826304   -1.732915
H      3.092466   -0.283102   -1.849780
H     -3.797036   -2.797789    1.727049
H     -6.118440   -0.915220    2.460070
H     -4.789080    0.714069    0.417301
H      5.606768    1.044285    0.654543
H      3.620347    1.535155    0.553268
H     -5.315332   -2.258510   -0.115083
H     -7.106975    0.086679   -2.106441
H     -2.606255   -1.359646    0.629556
H     -7.016714   -2.375920   -1.199451
H     -2.425961   -3.202689    3.225226
H     -9.511706    3.094025    0.146717
H     11.913024    1.728451   -1.315627
H     -6.588177   -3.014881    3.061479
H     -4.529523   -1.124363   -1.558307
H     -9.567148   -1.114517   -2.730666
H    -10.880306    0.864704   -1.291144
