44

C     -1.802490    0.244949   -1.854452
C     -3.805075    0.328767    1.341419
C     -3.993799   -1.145173   -0.591466
C      2.536143    2.518336    1.906524
C      0.469262   -2.104900   -2.202115
C      4.704269   -1.080526   -0.893395
C      5.136732    0.034353   -0.219708
C      3.354211   -1.390478   -0.865371
C      4.274938    0.856271    0.484151
C     -1.178978   -0.354330    0.553671
C     -2.005203    0.399482   -0.401500
C      2.493248   -0.567065   -0.161369
C      0.263731   -0.141366    0.512606
C      2.929078    0.546524    0.511126
C      1.124758   -0.936767   -0.171092
C      0.792759    0.985788    1.179716
C     -3.492724    0.182261   -0.132553
N      2.077914    1.327808    1.186300
O     -0.022496    1.718467    1.815777
O     -4.175029    1.187726   -0.807218
O      0.742434   -2.060753   -0.842486
H     -2.149613   -0.756631   -2.150664
H     -2.522000    0.951463   -2.360157
H     -0.760751    0.492040   -2.129475
H     -3.464882   -0.522189    1.949788
H     -3.374810    1.301480    1.710973
H     -4.901964    0.446585    1.426528
H     -4.599504   -1.074570   -1.523308
H     -4.699570   -1.580845    0.172752
H     -3.175730   -1.883123   -0.810995
H      1.661176    3.154844    2.193636
H      3.017916    2.232751    2.857290
H      3.185207    3.158562    1.276734
H      0.748496   -1.182449   -2.756999
H     -0.568694   -2.424554   -2.442814
H      1.140921   -2.888805   -2.701445
H      5.340030   -1.745887   -1.451283
H      6.202478    0.276245   -0.242614
H      2.988461   -2.258725   -1.382129
H      4.612867    1.732471    1.016759
H     -1.503589   -0.024482    1.594182
H     -1.441885   -1.453145    0.576804
H     -1.869139    1.507530   -0.122551
H     -4.289105    1.992061   -0.265823
