49

C     -1.288678   -2.811289    0.300530
C     -2.539293    1.132922    2.270885
C     -3.292267    1.408449    0.076878
C     -0.445787   -2.628039   -0.949333
C     -3.295269    2.183207    2.688761
C     -4.065356    2.477126    0.486268
C      0.825661    1.238617   -1.556873
C     -0.620493    1.106703   -1.130631
C      3.443316    0.961310    0.824030
C      3.890774   -0.187526   -1.326224
C      4.634194    0.233994    1.374713
C      4.836774   -1.055365   -0.523100
C     -2.488374   -1.682558   -1.267548
C     -2.491161    0.682854    0.946564
C     -2.377265   -1.719340    0.212013
C     -1.015556   -1.342584   -1.521650
C     -4.070658    2.872257    1.802692
C      1.516839    0.331917   -0.631029
C     -1.659700   -0.443185    0.563196
C     -0.683591   -0.258528   -0.527693
Cl    -5.054532    4.234047    2.329619
N      0.689445   -0.444426   -0.106247
N      2.927488    0.362778   -0.391767
O      5.488939   -0.232763    0.395409
H     -0.720139   -2.741123    1.225330
H     -1.835997   -3.775926    0.170644
H     -1.936281    0.606142    2.990944
H     -3.329724    1.155701   -0.948046
H     -0.576559   -3.450773   -1.672817
H      0.611488   -2.419640   -0.705351
H     -3.324946    2.526578    3.728388
H     -4.686609    3.035296   -0.203054
H      1.207907    2.270763   -1.399509
H      0.975673    0.914217   -2.607376
H     -0.814120    1.921415   -0.422591
H     -1.218105    1.198786   -2.081190
H      2.676476    0.997406    1.625185
H      3.756934    2.009537    0.593791
H      4.510223    0.667704   -1.706303
H      3.405658   -0.730514   -2.153198
H      5.208296    0.962373    1.990003
H      4.320155   -0.592634    2.039601
H      4.215229   -1.826772   -0.006504
H      5.611742   -1.507378   -1.159406
H     -3.202843   -1.072697   -1.746008
H     -2.632896   -2.748841   -1.614624
H     -3.253792   -1.945442    0.779030
H     -0.776248   -1.144521   -2.541386
H     -1.056968   -0.730231    1.484980
