37

C     -1.805109    1.228089    2.387232
C     -3.225454    0.426380    0.686360
C     -0.903298    0.242407    2.045764
C     -2.324542   -0.559954    0.343665
C      1.267410   -0.409939   -2.492589
C      0.334360   -1.012983   -1.497554
C     -3.962867    2.364447    2.042599
C     -0.114550   -1.690216    0.731068
C      1.990580   -0.628323    0.227048
C     -3.002132    1.336387    1.699290
C     -1.130920   -0.663787    1.033621
C      3.002776   -0.297862   -0.827546
C      2.279881    0.529586   -1.879434
F      3.357703   -1.480503   -1.453535
N     -4.740774    3.191102    2.300463
N      1.551664    1.627355   -1.275818
N      0.850977   -1.328520   -0.240212
Cl     0.692806    0.000000    0.000000
Cl     0.691511    0.000000    0.000000
H     -1.630440    1.947246    3.186806
H     -4.156828    0.499132    0.140418
H      0.036578    0.158371    2.587305
H     -2.499110   -1.275249   -0.451783
H      1.858313   -1.219251   -2.992889
H      0.709968    0.096548   -3.302319
H     -0.123757   -1.913354   -1.960342
H     -0.518235   -0.283162   -1.368755
H      0.443597   -1.974799    1.670568
H     -0.617432   -2.630495    0.416533
H      2.513508   -1.274730    0.990635
H      1.744624    0.315097    0.757614
H      3.841644    0.223796   -0.372017
H      2.969906    0.869516   -2.674754
H      0.673372    1.282997   -0.835803
H      1.328586    2.304674   -2.039784
H     -0.692806    0.000000    0.000000
H     -0.691511    0.000000    0.000000
