51

C     -5.083610   -1.032546   -0.124503
C     -0.910776    4.201655   -0.561539
C     -3.821026   -0.745805   -0.885572
C      5.437383    0.035448   -0.376225
C      5.410490    0.984647    0.617093
C      4.259128   -0.473886   -0.890395
C      4.185652    1.412907    1.084410
C      1.302437   -1.322320   -1.731148
C      0.493300   -2.381990   -1.029795
C     -2.643668   -1.316568    1.214815
C     -0.991550    0.374321    1.610730
C     -0.252618   -1.916978    1.230993
C     -1.335740   -1.090866    1.921787
C     -2.604590   -0.928965   -0.080604
C      3.033109   -0.024162   -0.400605
C      1.731022   -0.342382   -0.712883
C      2.985600    0.933773    0.602178
C      0.901014    0.409823    0.087091
C     -1.216811   -0.717128   -0.594180
C     -0.972129    1.750571   -0.474609
C     -0.605844    0.446002    0.147706
N      1.677160    1.157504    0.856884
N     -0.507831   -1.906643   -0.165300
O     -1.684331    1.823487   -1.508145
O     -0.544819    2.960540    0.055713
Cl     0.690867    0.000000    0.000000
H     -5.071237   -0.644749    0.909275
H     -5.932525   -0.537705   -0.641016
H     -5.327480   -2.121786   -0.116348
H     -1.951353    4.156744   -0.955414
H     -0.886287    5.031013    0.164479
H     -0.256681    4.456395   -1.402953
H     -3.930091    0.273805   -1.306874
H     -3.774747   -1.513659   -1.713213
H      6.389814   -0.308676   -0.751214
H      6.347029    1.374105    1.009694
H      4.228648   -1.222055   -1.672528
H      4.164814    2.159799    1.866002
H      2.210877   -1.814399   -2.127289
H      0.775953   -0.863960   -2.586495
H      0.021220   -3.003956   -1.827716
H      1.201959   -3.036288   -0.489844
H     -3.512072   -1.736670    1.679599
H     -1.911831    0.958560    1.821578
H     -0.158158    0.696269    2.235307
H      0.751026   -1.592443    1.517409
H     -0.423782   -2.971216    1.596373
H     -1.398033   -1.281125    2.992103
H     -1.185880   -0.600107   -1.681806
H      1.387862    1.851665    1.586994
H     -0.690867    0.000000    0.000000
