25

C     -2.683523   -0.433622   -0.523976
C      3.210060    0.045808    0.150346
C     -1.235665    0.001337   -0.546199
C      1.851072   -0.450025   -0.206405
C     -0.505670   -0.488435    0.675839
C      0.871426    0.059370    0.819934
N     -1.243523    1.449008   -0.630332
O     -3.345780    0.111648    0.571572
O      3.869104    0.700152   -0.639111
O      1.515166   -0.058151   -1.491516
O     -0.521186   -1.872845    0.717817
O      0.852878    1.439749    0.773761
H     -2.804306   -1.531794   -0.457584
H     -3.157239   -0.077924   -1.448312
H      3.610090   -0.181949    1.124390
H     -0.794450   -0.376932   -1.472336
H      1.916390   -1.560436   -0.202597
H     -1.076270   -0.153315    1.591467
H      1.265721   -0.208840    1.836331
H     -1.388125    1.875323    0.289657
H     -0.441309    1.848264   -1.124494
H     -3.195732   -0.367267    1.408404
H      2.033814    0.715089   -1.817431
H     -0.378969   -2.301301   -0.156856
H      1.776027    1.817088    0.757631
