94

C      6.429116   -0.641927   -2.688903
C      5.402401    1.545637   -2.924694
C      7.665903    1.394172   -1.876440
C     -4.392680   -2.685955    1.487497
C     -6.833991   -2.386674    0.953815
C     -5.796287   -1.345236    2.961287
C      6.102562   -1.077859    3.438856
C      5.914538    1.291281    3.988888
C      7.843882    0.457025    2.683520
C     -6.359287    4.040458    0.224846
C     -6.850533    2.888217   -1.930227
C     -8.147705    2.325542    0.119779
C      0.318073   -3.186159   -2.623028
C     -1.117316   -2.680178   -2.822376
C      1.216121   -2.140071   -2.180960
C     -1.585554   -2.335964   -1.418812
C      4.260047    0.369372   -0.674649
C     -4.002355   -0.297243    0.362717
C      6.302631    0.564767    0.476928
C     -6.172588    0.511412    0.561215
C      2.087922   -0.175004    0.472714
C     -2.199735    0.922821   -0.829139
C      3.524875    0.253630    0.477766
C     -3.601693    0.846263   -0.271304
C      5.627754    0.528590   -0.748367
C     -5.285000   -0.494671    0.795406
C      5.582029    0.452666    1.651730
C     -5.783643    1.688363   -0.086843
C      0.552653   -0.989450   -1.382759
C     -0.761405   -1.183701   -0.794580
C      4.221481    0.301704    1.676943
C     -4.475745    1.861260   -0.510019
C      6.331991    0.691633   -2.038637
C     -5.597137   -1.744537    1.516044
C      6.357710    0.357312    2.918526
C     -6.769616    2.739125   -0.392981
N      1.570492   -0.519485   -0.547747
N     -1.548592   -0.049240   -0.808488
O      3.465742    0.202263    2.849481
O     -4.043446    3.015866   -1.160606
Cl     0.000000    0.000000    0.000000
Mn     0.000000    0.000000    0.000000
H      5.794862   -0.734767   -3.632467
H      7.456225   -0.954779   -2.983628
H      6.012623   -1.470129   -2.046136
H      4.638701    0.879190   -3.376123
H      4.912707    2.323327   -2.314805
H      5.977501    1.978865   -3.771016
H      8.003493    1.603569   -2.923043
H      8.381186    0.698095   -1.469953
H      7.511902    2.323080   -1.355767
H     -4.080459   -2.971555    0.462974
H     -4.699671   -3.619117    2.042412
H     -3.521733   -2.315776    2.041486
H     -6.886750   -2.419810   -0.138748
H     -6.825852   -3.437636    1.296099
H     -7.692735   -1.843045    1.375785
H     -4.952591   -0.621174    3.178234
H     -6.717651   -0.784098    3.061050
H     -5.696314   -2.212463    3.618929
H      6.745143   -1.810804    2.870501
H      6.197434   -1.152989    4.524590
H      5.059825   -1.333140    3.194204
H      5.061120    0.883069    4.602365
H      5.537724    2.241448    3.558025
H      6.731239    1.539586    4.709481
H      8.320300    0.186688    3.645035
H      8.139096    1.459527    2.413373
H      8.148551   -0.340326    1.963189
H     -6.855065    4.910704   -0.289077
H     -5.271398    4.170306    0.302747
H     -6.774806    4.047573    1.276522
H     -6.345331    3.819734   -2.184836
H     -7.883748    2.830603   -2.229647
H     -6.308197    2.053366   -2.392686
H     -8.475735    1.360593   -0.320221
H     -8.860197    3.132617   -0.193645
H     -8.109848    2.290851    1.219479
H      0.692120   -3.610118   -3.577489
H      0.278167   -3.999000   -1.858529
H     -1.652067   -3.523028   -3.265232
H     -1.143473   -1.828627   -3.487503
H      1.743166   -1.644656   -3.067007
H      2.083035   -2.553439   -1.584622
H     -2.662528   -1.973511   -1.516286
H     -1.556289   -3.222645   -0.799272
H      3.669725    0.325512   -1.604478
H     -3.256229   -1.078091    0.517212
H      7.380182    0.685656    0.440184
H     -7.193562    0.411943    0.875706
H      1.524033   -0.184095    1.399844
H     -1.892384    1.896881   -1.227117
H      0.432876   -0.169500   -2.184773
H     -0.571937   -1.560494    0.298281
