89

C      6.407347   -0.755369   -3.877510
C     -2.439787   -4.639028    3.518090
C     -2.294597    0.368958    3.047333
C     -2.824031    5.608012   -0.323700
C     -0.838676    2.340916   -2.697318
C     -0.021448    0.294607   -1.450640
C      7.806837   -0.840991   -3.346840
C      8.029925   -0.002739   -2.118785
C      7.165478   -0.400731   -0.955930
C      7.443423    0.488012    0.259561
C      6.597540    0.084539    1.423605
C      5.142142    0.172838    1.162316
C      4.390368    0.948050    1.886308
C      2.951668    1.099011    1.702447
C      2.205178    1.883429    2.441709
C     -2.437198   -2.395823    2.356546
C     -5.138214   -2.226738    0.041767
C     -6.184798   -0.941938   -1.657944
C     -3.017204   -3.552888    2.663784
C     -1.883070    0.189889    1.573320
C     -2.061354    4.391282    0.020927
C     -4.931092   -1.455581   -1.023958
C     -3.370725   -1.656105    1.511512
C      0.768034    2.048549    2.274266
C     -2.652412   -0.443140   -0.624987
C     -3.617674   -1.096988   -1.598921
C     -2.423708    0.937436   -1.149927
C     -4.341443   -3.614433    1.977861
C     -1.343920    1.479458    1.052455
C     -1.030664    1.398465   -1.524422
C     -4.015690   -2.803243    0.769908
C     -3.010394   -0.458612    0.800093
C     -1.726677    1.925456   -0.294881
O     -6.171823    0.448999   -1.631301
O     -1.128417    4.453281    0.820666
O      0.157621    2.809384    3.024448
O     -5.355392   -4.191141    2.368546
O     -3.146581   -3.543344    0.003396
O     -4.071579    0.496144    0.908054
O     -3.022264   -2.124491   -3.528761
O      0.031483    1.407465    1.324356
O     -2.327771    3.195107   -0.494202
O     -3.073410   -2.211596   -2.238906
H      6.386513    0.069775   -4.649304
H      5.633829   -0.519735   -3.141462
H      6.158075   -1.696530   -4.434065
H     -3.023512   -5.554412    3.486896
H     -2.318110   -4.239277    4.548466
H     -1.430855   -4.864587    3.097789
H     -2.240203    1.485694    3.276933
H     -3.353668    0.136696    3.222096
H     -1.577262   -0.065015    3.747966
H     -3.873065    5.526600   -0.012145
H     -2.325710    6.499673    0.104558
H     -2.839356    5.670878   -1.447352
H     -0.015158    2.018966   -3.343846
H     -1.770344    2.306400   -3.298270
H     -0.590885    3.369909   -2.355781
H     -0.154459   -0.492327   -2.222417
H      0.096623   -0.126456   -0.433505
H      0.986504    0.749699   -1.681520
H      8.065830   -1.916155   -3.141697
H      8.496660   -0.442394   -4.129877
H      9.111517   -0.066920   -1.877723
H      7.833931    1.056283   -2.419574
H      6.113734   -0.320290   -1.210521
H      7.430146   -1.437806   -0.668366
H      7.330393    1.542027   -0.028644
H      8.509680    0.317577    0.509953
H      6.889488   -0.954650    1.708266
H      6.867053    0.709882    2.294510
H      4.660600   -0.398268    0.370094
H      4.856581    1.531753    2.690985
H      2.454360    0.539334    0.916447
H      2.698047    2.438734    3.221655
H     -1.437372   -2.193392    2.743940
H     -6.138267   -2.421094    0.361110
H     -7.077388   -1.314204   -1.138777
H     -6.148206   -1.257993   -2.735378
H     -1.085784   -0.582228    1.611063
H     -4.212302   -1.378990    2.246051
H     -1.693400   -1.037873   -0.732060
H     -3.869721   -0.402098   -2.462686
H     -3.163130    1.264854   -1.944073
H     -1.749217    2.248496    1.776411
H     -6.812484    0.814765   -2.303356
H     -3.303736   -4.528430    0.039523
H     -4.895232    0.030361    1.189271
H     -2.675772   -1.231603   -3.788765
