36

C      2.093008    1.663245    0.200836
C      0.872284    2.588577    0.403532
C      1.713750   -2.127377   -0.163271
C      0.334940   -2.179824    0.449739
C     -2.225788    0.731492   -0.522527
C     -2.190096   -0.409368    0.434353
C      1.665852    0.251246    0.618335
C     -0.219900    2.250531   -0.549214
C      2.436938   -0.838494   -0.026466
C     -1.554814    1.935558    0.084839
C     -0.753200   -2.261427   -0.565697
C     -2.085254   -1.749192   -0.188846
Br     1.885056    0.137008    2.532089
Br    -0.509506    3.762680   -1.759850
Br     3.011145   -0.193920   -1.775652
Br    -1.491741    1.755165    1.989273
Br    -0.214701   -1.468461   -2.269629
Br    -2.954134   -3.094981    0.931436
H      2.949120    2.026265    0.779571
H      2.307196    1.701188   -0.886214
H      0.600727    2.569885    1.455554
H      1.270392    3.620882    0.193354
H      1.650909   -2.377845   -1.262851
H      2.394338   -2.938801    0.232941
H      0.173700   -1.461275    1.274330
H      0.310871   -3.179224    0.997192
H     -3.289553    0.954054   -0.851980
H     -1.678417    0.530921   -1.469727
H     -3.209739   -0.389864    0.952046
H     -1.486280   -0.209425    1.238200
H      0.591002    0.215363    0.302820
H      0.115954    1.425463   -1.236491
H      3.399788   -0.960201    0.553318
H     -2.285004    2.791579   -0.109682
H     -0.928777   -3.353511   -0.855061
H     -2.700065   -1.717907   -1.130600
