31

C     -2.850558    0.265263    1.588548
C      4.750036   -0.502069    0.728837
C      4.118728   -1.423000   -0.082164
C      4.129253    0.681281    1.041007
C     -0.240459   -0.213197    0.088613
C     -1.549849    0.083645   -0.549911
C      2.856998   -1.137972   -0.573898
C      2.870142    0.932172    0.532476
C      0.856487    0.292793   -0.833574
C     -3.989222   -0.045589   -0.576204
C     -2.742876   -0.356329    0.240028
C      2.205991    0.040762   -0.279587
O     -4.153875    1.330213   -0.737478
H     -3.337303   -0.436601    2.327896
H     -1.928955    0.679217    1.996466
H     -3.582128    1.124175    1.525828
H      5.753691   -0.729293    1.119727
H      4.594835   -2.373953   -0.344642
H      4.658864    1.380277    1.682281
H     -0.043828   -1.272334    0.267830
H     -0.157138    0.401266    1.024753
H     -1.595612   -0.406436   -1.543944
H     -1.595656    1.180904   -0.744386
H      2.382712   -1.858139   -1.198216
H      2.405772    1.870205    0.794075
H      0.734351   -0.132207   -1.860928
H      0.759659    1.407902   -0.983058
H     -4.892081   -0.408767   -0.033334
H     -3.983267   -0.579885   -1.545733
H     -2.717185   -1.463401    0.352604
H     -3.717528    1.669097   -1.554141
