60

C     -2.333048   -2.536836   -2.300606
C      7.636158    1.828291   -1.830633
C     -7.535690   -0.660519    1.918245
C      6.182204   -1.959230    1.932550
C     -4.953315    0.925095   -2.774760
C      3.577422    1.327160   -0.756814
C     -3.418726    0.094714    1.905474
C      4.907000    1.492677   -1.109844
C     -4.797651   -0.154272    1.893026
C      4.224271   -0.373581    0.739422
C     -3.510645    0.620305   -0.379853
C      0.337475    2.002524    0.223150
C      0.236904   -1.196986    1.084847
C     -1.854878   -1.908831   -1.019066
C      3.210664    0.400301    0.165750
C     -2.761136    0.485744    0.764110
C      0.761032    0.637189   -0.269245
C      5.907639    0.735432   -0.549806
C     -5.518832   -0.011467    0.736120
C      5.544865   -0.221078    0.399903
C     -4.868128    0.379099   -0.408586
C      1.840554    0.135441    0.618603
C     -1.334373    0.755653    0.767696
C     -0.442472   -0.239001    0.127938
O     -2.303142   -2.327796    0.079981
O      7.248225    0.865570   -0.871354
O     -6.901766   -0.258649    0.712987
O      6.549182   -0.991129    0.971369
O     -5.595447    0.523262   -1.575942
O     -1.037723    1.940503    0.044315
O      1.567032   -1.250262    0.670587
O     -0.940241   -0.887621   -1.007333
H     -1.545956   -3.211376   -2.703293
H     -3.223891   -3.130828   -2.084522
H     -2.517241   -1.767869   -3.069859
H      7.285862    1.503914   -2.825090
H      7.140151    2.803073   -1.596491
H      8.726879    2.031625   -1.804364
H     -7.360966    0.129150    2.701378
H     -7.114625   -1.599526    2.316241
H     -8.626892   -0.749235    1.745390
H      7.045530   -2.483757    2.356577
H      5.499415   -2.683792    1.412047
H      5.580591   -1.536758    2.760466
H     -4.341318    1.818176   -2.565689
H     -5.731586    1.081214   -3.532058
H     -4.268011    0.094536   -3.073520
H      2.815768    1.936622   -1.214609
H     -2.890324   -0.027590    2.827570
H      5.194839    2.235915   -1.848683
H     -5.321636   -0.461786    2.785367
H      3.983107   -1.122863    1.476961
H     -3.014364    0.928507   -1.296404
H      0.784853    2.836405   -0.317258
H      0.522702    2.060137    1.331240
H     -0.209294   -2.193376    1.105497
H      0.251412   -0.715830    2.098645
H      0.960156    0.599307   -1.336417
H      1.677238    0.524532    1.641881
H     -0.925816    0.929769    1.806767
