60

C     -1.663599   -3.532921   -1.884582
C      7.427123    2.404200   -0.684963
C     -6.741318    3.092441   -0.838289
C      5.449933   -2.657197    0.538921
C     -5.729987   -2.281498    0.279749
C      3.408610    1.833875    0.189097
C     -2.949493    1.905085    0.340496
C      4.738066    1.996369   -0.095680
C     -4.208370    2.286505   -0.048881
C      3.732423   -0.468260    0.508534
C     -3.600368   -0.343326    0.527799
C      0.150608   -1.027122    2.160103
C      0.069479    0.523715   -1.006335
C     -0.786013   -2.436420   -1.404068
C      2.869641    0.577632    0.502144
C     -2.615173    0.587210    0.637232
C      0.764974   -0.767749    0.784206
C      5.606006    0.926638   -0.086418
C     -5.202871    1.339981   -0.158197
C      5.084287   -0.308245    0.219783
C     -4.887174    0.027816    0.132762
C      1.440693    0.560854    0.784353
C     -1.256622    0.289718    1.039269
C     -0.464484   -0.472076   -0.015248
O      0.401879   -2.270644   -1.776857
O      6.965191    1.103142   -0.379329
O     -6.469045    1.734838   -0.551597
O      5.963274   -1.380885    0.227399
O     -5.881880   -0.907743    0.021659
O     -1.139283   -0.549544    2.126559
O      0.809296    1.360018   -0.174031
O     -1.206594   -1.486190   -0.489067
H     -2.393617   -3.194956   -2.639088
H     -1.016482   -4.364277   -2.254154
H     -2.264474   -3.979249   -1.050292
H      7.181843    3.114000    0.122605
H      8.527209    2.339896   -0.823340
H      6.921399    2.809860   -1.605021
H     -6.123403    3.484098   -1.679377
H     -6.411202    3.667033    0.066108
H     -7.818986    3.264781   -1.019576
H      4.592404   -2.832461   -0.166109
H      5.029960   -2.694255    1.567559
H      6.253801   -3.400143    0.369212
H     -5.256663   -2.791241   -0.581696
H     -5.044809   -2.428900    1.152880
H     -6.688045   -2.767134    0.539142
H      2.789922    2.725744    0.161028
H     -2.188215    2.675843    0.416828
H      5.179963    2.965892   -0.342289
H     -4.426500    3.342458   -0.273689
H      3.354742   -1.443366    0.745425
H     -3.343874   -1.374332    0.758627
H      0.218952   -2.122363    2.321510
H      0.753471   -0.470722    2.931079
H      0.796945    0.036937   -1.688116
H     -0.700828    1.097580   -1.517461
H      1.368051   -1.588458    0.429341
H      1.303222    1.062509    1.788030
H     -0.673992    1.205010    1.257623
