51

C     -3.315640   -2.356137   -0.362087
C     -2.423681   -1.193612    1.448969
C      3.828674   -3.907510    0.483365
C      4.921174    1.571455    0.663909
C     -3.610597    0.902091   -1.195682
C     -3.817152   -0.041529   -0.032861
C     -0.507311   -1.684401   -0.497151
C     -2.072108    2.909787   -0.891707
C      1.822578   -2.028050    0.020601
C      2.363354    0.707385    0.109707
C      0.804107    4.585170    0.350275
C     -2.317743    1.576509   -0.930182
C      0.806597   -1.108654   -0.213411
C      1.098214    0.251781   -0.164087
C     -1.611240   -0.735079   -0.759157
C      3.098825   -1.598506    0.297137
C      3.354859   -0.254569    0.338785
C     -0.808514    3.425208   -0.619600
C     -1.249290    0.690024   -0.685047
C      0.001623    1.176932   -0.415345
C      0.239150    2.539419   -0.378904
N     -2.784603   -1.027198    0.028205
O      4.103702   -2.531421    0.528846
O      4.640982    0.199542    0.617224
O     -0.324694    4.741803   -0.527680
O      1.320768    3.370337   -0.151289
I      0.000000    0.000000    0.000000
H     -2.631818   -3.114543    0.064525
H     -3.280540   -2.457505   -1.470689
H     -4.315518   -2.507189    0.063640
H     -1.582099   -0.529118    1.715274
H     -3.303879   -0.861422    2.034219
H     -2.225867   -2.262286    1.683283
H      4.787819   -4.463695    0.619506
H      3.357886   -4.167582   -0.474487
H      3.164675   -4.195806    1.315812
H      4.611076    2.103761   -0.276259
H      5.984971    1.776783    0.882982
H      4.292963    1.999489    1.496026
H     -3.619161    0.374898   -2.170480
H     -4.460834    1.602084   -1.201114
H     -3.746856    0.602234    0.893395
H     -4.836076   -0.496896   -0.054024
H     -0.367179   -2.353548   -1.394655
H     -0.725196   -2.412811    0.333038
H     -2.898912    3.588773   -1.081600
H      1.652450   -3.095232   -0.005160
H      2.651720    1.742755    0.161917
H      1.493740    5.424459    0.294533
H      0.379084    4.402894    1.348239
H     -1.944482   -0.881273   -1.840757
