51

C     -3.016144   -2.632011    0.785424
C     -2.095945   -2.045211   -1.255885
C      4.289964   -3.141789    1.456454
C      4.861718    1.905299   -0.776410
C     -3.894109    0.681768    0.193844
C     -3.794553   -0.692846   -0.381354
C     -0.420168   -1.459764    0.968627
C     -2.558216    2.636659   -0.709573
C      1.993610   -1.580888    0.893413
C      2.221396    0.936133   -0.217274
C      0.431039    4.560340   -1.299082
C     -2.647950    1.391833   -0.169566
C      0.843305   -0.828189    0.624133
C      0.976518    0.426979    0.069165
C     -1.649529   -0.696455    0.679128
C      3.237458   -1.095167    0.617207
C      3.336610    0.166720    0.061176
C     -1.331954    3.211125   -1.019165
C     -1.468828    0.648871    0.090098
C     -0.240234    1.180217   -0.200892
C     -0.178563    2.463654   -0.756306
N     -2.644396   -1.463918   -0.042088
O      4.362286   -1.863698    0.894713
O      4.614020    0.635308   -0.209219
O     -0.953402    4.429584   -1.562645
O      0.896132    3.240935   -1.145548
I      0.000000    0.000000    0.000000
H     -2.226608   -3.426344    0.702899
H     -3.946435   -3.100199    0.388896
H     -3.078156   -2.365614    1.849814
H     -1.127930   -1.533798   -1.534557
H     -1.863326   -3.105788   -1.178171
H     -2.759913   -1.903984   -2.133814
H      3.641986   -3.099690    2.338911
H      5.325513   -3.425143    1.766287
H      3.917125   -3.912819    0.729566
H      5.966718    1.983348   -0.912187
H      4.536457    2.664388   -0.045886
H      4.348597    2.033639   -1.743017
H     -3.964666    0.693998    1.299905
H     -4.762760    1.174953   -0.278922
H     -4.740586   -1.274587   -0.194016
H     -3.806068   -0.542385   -1.508801
H     -0.471049   -2.413078    0.356158
H     -0.339080   -1.739079    2.062933
H     -3.464135    3.188910   -0.900943
H      1.929179   -2.568579    1.327959
H      2.401872    1.895947   -0.645817
H      0.869236    5.056466   -2.197984
H      0.583635    5.194713   -0.416074
H     -2.139670   -0.490766    1.689028
