45

C     -4.121099   -2.388244    0.958465
C     -0.205169    3.686377    0.688494
C      5.857137    1.234743    0.028138
C      5.265776    1.483370   -1.189457
C      5.103146    0.651214    1.032558
C      3.933662    1.146543   -1.385729
C      3.759750    0.317700    0.817121
C     -2.396290   -1.783944   -1.428379
C     -2.924399   -0.449537   -0.987563
C     -0.555810   -2.127623    0.136043
C      3.173930    0.567582   -0.399261
C     -1.982369   -2.478415   -0.148727
C     -2.728884   -0.469179    0.525088
C     -0.360569   -0.634299   -0.045323
C     -1.352596    0.069160    0.854816
C      1.796419    0.235482   -0.648348
C     -1.352016    1.533070    0.651135
N     -2.795690   -1.854942    0.897910
O      1.305878    0.492715   -1.803167
O     -2.367137    2.168545    0.264162
O     -0.203690    2.281998    0.884494
O      0.970463   -0.352721    0.306988
Cl     0.689253    0.000000    0.000000
H     -4.069533   -3.443990    0.570027
H     -4.887872   -1.796406    0.451500
H     -4.372842   -2.514816    2.051962
H      0.277269    3.978244   -0.270330
H      0.246336    4.207810    1.558789
H     -1.258579    4.072356    0.626582
H      6.903527    1.504644    0.167212
H      5.836546    1.930808   -1.966001
H      5.543241    0.447124    1.992855
H      3.508660    1.365940   -2.376401
H      3.242450   -0.128689    1.636918
H     -3.212978   -2.357258   -1.944731
H     -1.569756   -1.708648   -2.161119
H     -4.016948   -0.322331   -1.227670
H     -2.418214    0.410484   -1.461190
H      0.172357   -2.717460   -0.442957
H     -0.374099   -2.322836    1.228337
H     -2.173034   -3.547776   -0.250912
H     -3.526565    0.136818    0.982191
H     -0.533631   -0.323306   -1.078059
H     -1.136778   -0.200308    1.903539
H     -0.689253    0.000000    0.000000
