43

C     -3.380041   -0.811261    0.552546
C     -2.213818   -0.165762   -1.365891
C      2.135599   -3.805192   -0.392857
C      3.112541   -2.877390   -0.635720
C      0.892214   -3.386124    0.000372
C      2.812218   -1.517701   -0.474532
C     -1.754084    2.245089    1.091003
C     -2.742082    1.428759    0.299698
C     -0.787812   -1.710074    0.588559
C      0.559266    2.976334    0.435236
C      3.942263    2.567394   -0.855396
C      0.574443   -2.043970    0.165815
C     -0.346137    1.984651    0.655427
C      1.549545   -1.114527   -0.076356
C     -1.118564   -0.289189    0.770984
C      1.834987    2.595818    0.032742
C     -0.012638    0.648652    0.486062
C      1.249247    0.301896    0.089405
C      2.213741    1.279242   -0.149224
N     -2.328008    0.081840    0.060930
O      2.932051    3.381842   -0.255629
O      3.545789    1.261490   -0.549755
I      0.000000    0.000000    0.000000
H     -3.495075   -1.703439   -0.098362
H     -4.341951   -0.252794    0.582678
H     -3.146729   -1.164618    1.576350
H     -2.811004    0.619311   -1.896491
H     -1.165151   -0.122681   -1.717966
H     -2.682824   -1.141930   -1.658749
H      2.351781   -4.879169   -0.513858
H      4.098217   -3.156057   -0.944648
H      0.110458   -4.117937    0.195286
H      3.585244   -0.811756   -0.668128
H     -1.941555    3.317862    0.878704
H     -1.885476    2.043155    2.164998
H     -2.953563    1.932615   -0.676285
H     -3.711589    1.472790    0.860391
H     -1.489418   -2.201192   -0.137009
H     -0.957592   -2.321237    1.536129
H      0.279965    4.019167    0.573151
H      4.936842    2.833549   -0.442785
H      3.924592    2.737439   -1.949384
H     -1.375893   -0.134893    1.862560
