32

C      0.197337   -0.512931   -2.308624
C     -4.029939    0.597164    0.693577
C     -2.923832    1.151083    1.333691
C     -3.867376   -0.483234   -0.126373
C      3.361613    1.322482    0.872869
C     -1.683315    0.578238    1.116018
C     -2.636796   -1.039992   -0.335185
C      4.420233    0.537875    1.572865
C      2.475672    0.273323    0.272809
C     -0.230944   -1.156396    0.103442
C      0.694628   -0.581598   -0.918088
C     -1.519264   -0.502433    0.297037
N      5.276051   -0.070455    2.131081
N      1.331419    0.673149   -0.451990
Cl     0.686721    0.000000    0.000000
H      0.473438   -1.460020   -2.888466
H      0.752397    0.287317   -2.841274
H     -0.902941   -0.441653   -2.394771
H     -5.021764    0.993163    0.820551
H     -3.050821    2.007728    1.976298
H     -4.723886   -0.923082   -0.631411
H      2.850872    1.990159    1.566967
H      3.895713    1.840738    0.060303
H     -0.844723    1.046859    1.639460
H     -2.555307   -1.909470   -1.003670
H      2.143873   -0.375744    1.134958
H      3.125205   -0.365909   -0.381900
H     -0.401767   -2.231612   -0.163524
H      0.308873   -1.195015    1.078899
H      1.557579   -1.342467   -0.952660
H      1.527772    1.292732   -1.272890
H     -0.686721    0.000000    0.000000
