41

C     -0.103078    1.802258    1.696747
C      6.276584   -0.966860    0.068203
C     -4.549210    0.898828   -0.424106
C     -4.127610   -1.510993   -0.185226
C      2.646168    0.228485   -0.540603
C      1.795352    1.089345    0.304431
C      3.974475    0.105015    0.215827
C      0.056254   -0.540977    0.696316
C     -2.407412    0.081324    0.609600
C     -2.735571   -0.139375   -1.768120
C      0.639152    0.785214    0.852224
C      4.937140   -0.732373   -0.507837
C     -1.253915   -0.640279    0.009484
C     -1.274741   -0.125454   -1.386452
C     -3.498416   -0.184361   -0.456247
O      4.649844   -1.232593   -1.567752
O     -0.374553    0.237788   -2.108780
H     -0.787717    1.276195    2.383478
H      0.642411    2.299663    2.393275
H     -0.523883    2.616025    1.111296
H      6.210968   -1.114867    1.154148
H      6.852388   -0.005424   -0.069449
H      6.837172   -1.771476   -0.447840
H     -4.804833    1.210427    0.617510
H     -4.270648    1.778796   -1.039568
H     -5.477455    0.480718   -0.865921
H     -3.767758   -1.915593    0.781777
H     -3.783667   -2.227632   -0.966792
H     -5.233377   -1.469495   -0.136757
H      2.308719   -0.773192   -0.740635
H      2.837655    0.701117   -1.540767
H      2.152105    2.119134    0.516771
H      3.741064   -0.253147    1.223730
H      4.385869    1.147916    0.235627
H     -0.088945   -1.000373    1.743177
H      0.728416   -1.290149    0.219449
H     -2.720593   -0.235527    1.601244
H     -2.322383    1.188560    0.600251
H     -2.996487   -1.000155   -2.383542
H     -3.000131    0.809676   -2.297156
H     -1.569355   -1.726188   -0.075877
