41

C     -0.017925   -1.958649    1.519535
C      5.244847    1.528343    0.858357
C     -2.575836    2.043973    0.098182
C     -4.389361    0.403249    0.678274
C      2.792932   -0.893084   -0.903786
C      1.964227   -1.333491    0.215123
C      3.544561    0.397040   -0.637594
C     -0.116874   -1.199800   -0.997768
C     -2.123617   -0.390884    0.231388
C     -3.340005    0.401552   -1.605116
C      0.632392   -1.487882    0.243728
C      4.474167    0.308411    0.502816
C     -1.093500   -0.085873   -0.791138
C     -1.939574    0.124594   -2.011357
C     -3.173224    0.695574   -0.123341
O      4.594634   -0.720429    1.114574
O     -1.511671    0.069493   -3.137759
H      0.602833   -2.802175    1.962131
H     -0.973896   -2.425572    1.245995
H     -0.038833   -1.207358    2.305287
H      5.339274    1.633071    1.965333
H      4.693033    2.442858    0.522873
H      6.252320    1.550586    0.391053
H     -2.130215    2.429876   -0.864415
H     -3.319913    2.793391    0.439935
H     -1.696702    1.981436    0.795659
H     -4.061470    0.163809    1.723534
H     -5.075710    1.265341    0.772525
H     -4.868801   -0.501576    0.291775
H      2.375648   -0.889731   -1.896723
H      3.631434   -1.676286   -0.963102
H      2.450909   -1.586393    1.185804
H      4.111544    0.632576   -1.564777
H      2.836498    1.230673   -0.455381
H      0.486872   -0.978353   -1.874663
H     -0.768469   -2.113279   -1.213927
H     -1.887286   -0.212496    1.268307
H     -2.609956   -1.355067   -0.017936
H     -4.003319   -0.473693   -1.752018
H     -3.749486    1.313815   -2.071397
H     -0.562482    0.882412   -0.535189
