70

C      0.864612   -3.011064   -0.283319
C     -2.352805    3.333656   -2.141873
C     -1.582301   -1.552110   -2.865742
C      3.785067   -0.301811   -2.575902
C      3.246765    4.469452    1.651454
C     -2.184591   -4.486992    1.756293
C      0.618492    0.293033    2.488715
C      2.193323   -2.134511    1.456530
C      2.849420   -0.885884    1.913491
C     -3.543701    1.387183   -1.286411
C      0.154386    2.110406   -0.758730
C      1.100093   -1.950983    0.464224
C     -2.316348    2.231686   -1.450132
C     -2.318205   -1.630237   -1.574880
C      3.619059    0.329976   -1.227749
C      1.991424    3.677447    1.565794
C     -1.935263   -3.020792    1.705345
C      2.450938    0.187619    0.925685
C     -3.249512    0.199611   -0.341368
C      0.744127    1.816492    0.613747
C      0.308229   -0.689334    0.286740
C     -1.156265   -0.973400    0.543109
C     -3.764090   -1.429704   -1.846681
C      0.928474    0.420215    1.010396
C     -1.206541    1.608859   -0.741064
C     -1.978275   -0.484646   -0.608913
O      4.247936    1.346457   -0.886494
O      1.006992    4.025421    2.280832
O     -2.222473   -2.296668    2.719383
O     -4.454716   -1.772128   -2.846527
O     -1.655309    1.637120    0.575925
O      2.722132   -0.273817   -0.362787
O      1.917716    2.587759    0.718712
O     -1.407537   -2.380572    0.622339
O     -4.238841   -0.768744   -0.753999
O     -1.172527    0.356937   -1.339998
H      1.426769   -3.918677   -0.166853
H      0.109539   -2.989699   -1.030113
H     -3.277143    3.648281   -2.606133
H     -1.475859    3.934031   -2.256979
H     -0.794058   -0.772975   -2.842384
H     -2.271101   -1.270445   -3.687093
H     -1.156101   -2.544068   -3.183563
H      4.617475    0.186367   -3.101558
H      3.939031   -1.395921   -2.439887
H      2.857889   -0.172556   -3.171916
H      3.811940    4.318269    0.710649
H      3.020016    5.552027    1.725916
H      3.828105    4.115320    2.505774
H     -2.978429   -4.680078    2.526961
H     -2.464193   -4.899458    0.764830
H     -1.257174   -4.948028    2.164221
H     -0.415369    0.637949    2.729327
H      1.348327    0.864559    3.106716
H      0.645348   -0.769296    2.782783
H      2.971620   -2.782682    0.942198
H      1.786293   -2.774363    2.294264
H      3.965133   -0.996550    1.766124
H      2.666693   -0.637189    2.953936
H     -3.758018    0.971564   -2.292487
H     -4.385595    1.957837   -0.859132
H      0.273335    3.201601   -0.909788
H      0.836797    1.594712   -1.489155
H     -2.250625   -2.618462   -1.078093
H      3.004937    1.096940    1.227683
H     -3.547146    0.391944    0.690115
H     -0.005144    2.286199    1.323386
H      0.452275   -0.467983   -0.822337
H     -1.486044   -0.592309    1.529264
H     -2.049408    2.497209    0.787180
