43

C      0.756715   -0.328305   -0.611212
C     -0.442718   -0.187400    0.284912
C      1.981568    0.063695    0.096562
C     -1.683580   -0.583660   -0.430012
N     -0.539553    1.104998    0.893987
O      3.122868    0.025443   -0.466313
O      1.886845    0.486597    1.414799
O     -2.535693    0.265971   -0.751567
O     -1.882713   -1.907717   -0.735080
C     -0.685486   -0.524873   -0.743032
C      0.210148    0.423353   -0.009000
C     -1.929969   -0.748784    0.027711
C      1.464150    0.635388   -0.807685
N      0.606614   -0.087273    1.286740
O     -2.838011   -1.502203   -0.376109
O     -2.085504   -0.098973    1.233938
O      1.399394    1.077074   -1.979484
O      2.722913    0.357267   -0.293673
Mg     0.000000    0.000000    0.000000
O     -0.004479    0.386353   -0.000000
O     -0.007080    0.387818   -0.000000
O     -0.000564    0.377265   -0.000000
O     -0.002063    0.391219   -0.000000
H      0.872574   -1.376208   -0.942575
H      0.654714    0.320608   -1.509242
H     -0.290626   -0.928828    1.124607
H     -0.474673    1.886761    0.203407
H     -1.425728    1.158047    1.427729
H     -0.993814   -0.031634   -1.695366
H     -0.195984   -1.476850   -0.995286
H     -0.291799    1.388679    0.162806
H      0.946395    0.639233    1.923718
H      1.163169   -0.950048    1.234227
H     -3.032903   -0.011316    1.611503
H      3.540689    0.910960   -0.581009
H      0.805004   -0.191594    0.000000
H     -0.800524   -0.194760   -0.000000
H      0.801757   -0.191367    0.000000
H     -0.794677   -0.196451   -0.000000
H      0.808264   -0.188460    0.000000
H     -0.807700   -0.188805   -0.000000
H     -0.801992   -0.196401   -0.000000
H      0.804055   -0.194817    0.000000
