51

C     -2.950469   -1.054654    1.105682
C      1.197485    0.526464   -1.696640
C      3.242353   -0.735422    1.978212
C      2.181537   -2.122615   -1.246656
C     -0.532820    0.720980    1.886230
C      0.911744    0.977950    1.495953
C     -4.855168    1.154115   -0.560696
C      0.759618   -1.761472   -1.077708
C      3.170488   -1.494371   -0.368220
C     -4.989888    1.418665   -1.930881
C     -1.471276    0.626791   -1.769920
C     -2.812623    0.459199    0.903325
C     -1.340389    0.813095    0.628830
C     -3.539053    0.828258   -0.327616
C     -0.901087   -0.011197   -0.512953
C     -2.922876    0.904998   -1.553816
C      1.286897   -0.244061    0.689229
C      3.461450    0.870959    0.248318
C      0.557150   -0.310583   -0.608593
C      2.756325   -0.415337    0.544430
O      4.277708    0.986285   -0.696937
O      3.221359    1.986608    1.031340
O     -3.825265    1.257993   -2.468113
H     -2.009280   -1.504521    1.466395
H     -3.323001   -1.525407    0.182468
H     -3.719801   -1.267605    1.895766
H      0.530034    0.466497   -2.581889
H      1.401517    1.559181   -1.380936
H      2.128918    0.000933   -2.067157
H      2.481429   -1.328067    2.508172
H      3.410438    0.194381    2.553373
H      4.162397   -1.354581    1.872618
H      2.425061   -1.993864   -2.345991
H      2.242337   -3.248590   -1.128557
H     -0.889912    1.497669    2.578045
H     -0.604346   -0.290242    2.310884
H      1.568398    1.050698    2.383476
H      0.894496    1.908036    0.882606
H     -5.618992    1.191314    0.188661
H      0.216115   -2.412831   -0.334905
H      0.185245   -1.842509   -2.024617
H      3.733668   -2.279913    0.222288
H      3.996847   -1.078883   -1.024833
H     -5.899433    1.703323   -2.438235
H     -1.418498   -0.060386   -2.638389
H     -1.013235    1.622217   -1.953086
H     -3.184182    0.943044    1.809262
H     -1.361423    1.891935    0.334508
H     -1.436470   -1.006226   -0.442825
H      0.921138   -1.122131    1.303661
H      3.297334    2.903881    0.595840
