52

C     -0.466260    0.795170   -1.650163
C     -6.230807   -1.820933    1.599058
C     -6.207607    2.247180    0.158895
C      7.062578    0.532977   -1.433660
C     -5.253337    2.616553   -0.782100
C      7.480415    0.686603   -0.119236
C     -6.217306    0.934542    0.624692
C      5.827623    0.018225   -1.750463
C     -4.372598    1.660583   -1.197455
C      6.628271    0.310968    0.916696
C      0.259987    0.252282    0.609165
C      3.013974   -1.839027   -0.443334
C     -1.745026   -0.821280   -0.222227
C      2.683135   -0.321587    1.563388
C     -0.984752    0.499968   -0.265258
C      2.117134   -1.318275    0.622355
C     -5.325081   -0.015292    0.197837
C      4.989525   -0.351328   -0.718259
C     -4.367449    0.362002   -0.747905
C      5.392223   -0.203622    0.594365
N      0.915599   -0.861783    0.011119
O     -5.314395   -1.333834    0.649341
O      3.748145   -0.865468   -1.154988
S     -3.170771   -0.836528   -1.327546
S      4.411021   -0.636311    2.031301
Br     0.761244    0.000000    0.000000
H     -0.606053   -0.133240   -2.246073
H     -0.982044    1.662546   -2.114944
H      0.593361    1.095438   -1.567666
H     -7.166288   -2.130479    1.095176
H     -6.408423   -1.035869    2.364892
H     -5.850190   -2.727919    2.120750
H     -6.919190    2.964165    0.515129
H      7.775752    0.845403   -2.193510
H     -5.200671    3.624042   -1.178357
H      8.451336    1.090405    0.131311
H     -6.955259    0.632880    1.356625
H      5.539921   -0.085400   -2.765047
H     -3.613765    1.939959   -1.938174
H      6.925377    0.417373    1.961029
H      0.873371    1.159841    0.460746
H     -0.032247    0.085952    1.665361
H      2.333488   -2.298682   -1.228142
H      3.633502   -2.705889   -0.114559
H     -1.090911   -1.679283   -0.512740
H     -2.073839   -1.027932    0.816790
H      2.092660   -0.191350    2.480205
H      2.713018    0.669309    1.045752
H     -1.615619    1.284121    0.161709
H      1.839254   -2.218102    1.248529
H      0.869216   -0.929073   -1.006304
H     -0.761244    0.000000    0.000000
