52

C     -5.269409   -1.311709    1.797240
C      0.667236    3.537112    0.951765
C     -7.163131   -1.142392    0.206836
C     -1.011738    2.033521    0.006068
C     -6.907367   -0.142474   -1.885899
C     -0.380537   -0.061091   -0.917007
C      6.626134   -2.541355    0.167928
C      5.099057    0.916388    0.280519
C     -5.829052   -0.893547    0.496686
C      0.327047    2.255067    0.290325
C     -7.724294   -0.771431   -0.988176
C     -1.375796    0.855708   -0.608447
C     -5.545367    0.123173   -1.616144
C      0.944597    0.174948   -0.627596
C      5.630216   -1.489369    0.611843
C      5.961055   -0.222460   -0.152478
C      1.327194    1.361082   -0.006618
C     -4.986222   -0.252483   -0.411828
C      2.738742    1.613463    0.302147
C     -3.593582   -0.008052   -0.074733
O      7.928218   -2.189169    0.435271
O     -9.064714   -1.035080   -1.248675
O     -4.836564    0.755012   -2.589362
O      1.955052   -0.728706   -0.927820
O      5.694570   -1.250633    1.963289
O      5.893640   -0.472677   -1.515461
O      3.078535    2.678321    0.859145
O     -3.159363   -0.390289    1.064710
O      3.728953    0.699400   -0.005743
O     -2.703627    0.610561   -0.902591
H     -4.511237   -2.108453    1.721380
H     -6.112997   -1.798050    2.389173
H     -4.983984   -0.455107    2.435724
H      1.338470    4.090396    0.234680
H     -0.240947    4.165565    1.131987
H      1.152024    3.391244    1.949364
H     -7.806213   -1.647385    0.935810
H     -1.779132    2.777018    0.261573
H     -7.344917    0.153919   -2.833797
H     -0.672277   -0.986642   -1.400658
H      6.396426   -3.462749    0.754984
H      6.470039   -2.794654   -0.888420
H      5.295926    1.161324    1.323897
H      5.401399    1.812727   -0.320792
H      4.622977   -1.806817    0.302281
H      7.010429    0.030507    0.101041
H      8.025703   -1.482962    1.125200
H     -9.681287   -1.488086   -0.620077
H     -3.925166    1.039957   -2.650685
H      1.751508   -1.611338   -1.379127
H      6.462636   -0.675477    2.208202
H      5.081134   -1.015776   -1.736937
