85

C      4.481271    0.268463   -0.556870
C      3.285012   -1.899361   -0.590160
C     -2.989047    2.235609   -0.923032
C     -0.907267    3.302841   -0.228046
C      0.708522   -0.689543    1.890525
C     -1.979803   -1.043595    0.766734
C      1.723369    0.289513    1.301304
C      1.206740    0.681238   -0.053164
C     -0.198791    0.234818   -0.316145
C      3.144773   -0.416359   -0.262060
C     -1.613312    1.962615   -0.352873
C     -1.080927    0.162874    0.870693
N     -2.587892   -3.823910   -0.755534
O     -4.820952   -2.429584   -1.220014
O     -4.018330   -2.698244    1.110077
O     -0.433881    0.080912    2.100198
O     -2.694013   -1.104085   -0.408008
O      2.927252   -0.317581    1.090520
O      2.107151    0.149801   -0.937528
O     -0.848897    1.137166   -1.157719
O     -1.792230    1.352628    0.868571
S     -3.621739   -2.505033   -0.325862
C     -3.058258   -2.572106    0.071359
C     -3.579682   -0.692877    1.547786
C      1.175572    3.087669   -1.809429
C      2.387886    3.214448    0.369777
C     -0.848128   -0.350168   -1.820226
C      1.675230   -1.110577   -0.204028
C     -1.767771    0.434285   -0.918177
C     -1.181276    0.367310    0.485949
C      0.242606    0.769915    0.470540
C     -2.718441   -1.133309    0.366141
C      1.460769    2.374173   -0.489331
C      1.062916    0.205104   -0.641057
N      3.937117   -3.001145    0.412349
O      3.869277   -1.846530    2.812663
O      1.917884   -3.135370    2.162003
O      0.430940    0.127967   -1.851981
O      2.279090   -0.856963    1.047937
O     -2.918462   -0.348295   -0.740170
O     -1.392363   -0.975724    0.770906
O      0.307960    2.142399    0.219619
O      2.074201    1.174664   -0.756475
S      2.993183   -2.233595    1.641040
Zn     0.000000    0.000000    0.000000
H      4.995144   -0.222841   -1.395678
H      4.331020    1.362915   -0.746182
H      5.149896    0.206167    0.330885
H      2.654375   -2.469797    0.135748
H      4.331005   -2.237225   -0.465104
H      2.960684   -2.077179   -1.628844
H     -3.678342    2.422472   -0.072912
H     -3.007398    3.145813   -1.552929
H     -3.375623    1.344032   -1.457269
H     -1.637124    4.157137   -0.302790
H     -0.365221    3.406381    0.716567
H     -0.225371    3.439197   -1.101111
H      0.566675   -1.484063    1.130869
H      1.086242   -1.145289    2.824100
H     -2.733340   -1.069789    1.604754
H     -1.391130   -1.968401    0.870179
H      1.768372    1.148398    1.990540
H      1.242926    1.786516   -0.136692
H     -0.144333   -0.724794   -0.868962
H     -2.525467   -3.950830   -1.786777
H     -2.460867   -3.004531   -0.739111
H     -4.116427   -2.590274   -0.261658
H     -2.944881   -3.211174    0.961496
H     -3.882122    0.378663    1.362756
H     -3.003819   -0.757499    2.493994
H     -4.479358   -1.307829    1.662648
H      0.063760    3.219124   -1.884485
H      1.487391    2.487940   -2.676818
H      1.616059    4.093457   -1.772234
H      2.817121    4.060511   -0.217978
H      3.192067    2.614352    0.828789
H      1.829046    3.703663    1.215750
H     -1.270548   -0.325626   -2.828556
H     -0.809472   -1.393792   -1.400988
H      2.419657   -1.501887   -0.898478
H      0.871079   -1.844668    0.006232
H     -1.977621    1.443332   -1.251219
H     -1.732101    1.037096    1.175425
H      0.741259    0.528758    1.430004
H      3.289529   -3.270893   -0.352762
