48

C     -5.158259   -2.265950    2.148964
C      4.118170   -0.144231   -0.069890
C      2.997980   -1.355441    1.587563
C      5.337798   -0.456620    0.505893
C      4.213322   -1.676991    2.176116
C     -2.971303    1.174048   -0.940217
C     -4.332646    1.147037   -1.247483
C      1.636068   -0.524785   -1.664378
C      2.040358    0.562432   -2.591485
C     -3.260466   -0.478085    0.731145
C      2.007580    2.152275   -0.743918
C     -0.245946    1.305115   -0.406273
C      2.921486   -0.580204    0.448982
C      1.199896    1.198199    0.063169
C      5.399217   -1.230098    1.640618
C     -2.433615    0.374381    0.035888
C      1.654338   -0.199874   -0.220164
C     -5.126215    0.276658   -0.525126
C     -4.625883   -0.546435    0.466479
F      6.613308   -1.515372    2.176280
N      2.061840    1.872528   -2.115934
O     -6.491147    0.267438   -0.852044
O     -5.490160   -1.375222    1.127533
O     -1.080958    0.421106    0.320218
Cl     0.685543    0.000000    0.000000
H     -5.904592   -3.107921    2.102743
H     -4.135420   -2.657670    1.968845
H     -5.276820   -1.837603    3.174680
H      4.180640    0.464429   -0.960530
H      2.097852   -1.717793    2.027787
H      6.264620   -0.097580    0.073110
H      4.248087   -2.293939    3.079656
H     -2.341640    1.840140   -1.487488
H     -4.753570    1.784140   -2.023313
H      0.630411   -0.957810   -1.938573
H      2.340957   -1.395322   -1.815604
H      3.041042    0.339314   -3.066770
H      1.332499    0.528437   -3.475438
H     -2.871765   -1.123045    1.507335
H      1.463595    3.148273   -0.645569
H      2.997215    2.396716   -0.252654
H     -0.349297    1.097945   -1.472609
H     -0.565429    2.353013   -0.229099
H      1.247318    1.438953    1.139629
H      0.864783   -0.845969    0.291317
H      1.631150    2.581869   -2.746451
H     -7.126400   -0.340485   -0.367479
H     -0.685543    0.000000    0.000000
