52

C     -4.414966    0.611921   -0.170808
C     -4.078354   -1.848834   -0.451404
C      2.598226    2.486087   -0.907097
C      0.539753    3.193505    0.184761
C     -0.688801   -1.430348    1.136058
C      2.171267   -0.965756   -0.366922
C     -1.598359   -0.192640    1.110133
C     -1.364572    0.413025   -0.259766
C      0.012561    0.161024   -0.752290
C     -3.396099   -0.514363   -0.140589
C      1.274363    1.954226   -0.341151
C      1.018890   -0.182036    0.272900
N      5.556549   -2.635540    0.891943
O      5.059820   -1.116125   -1.246092
O      3.706295   -3.169775   -0.940123
O      0.576061   -0.937496    1.328969
O      3.199085   -1.160627    0.570979
O     -2.902880   -0.603858    1.137665
O     -2.338397   -0.292382   -1.003923
O      0.520267    1.343694   -1.307500
O      1.501797    1.068473    0.682243
S      4.403255   -2.026769   -0.238446
Na     0.000000    0.000000    0.000000
O     -0.000093    0.381291   -0.000000
O     -0.000984    0.391459   -0.000000
O     -0.001056    0.369230   -0.000000
H     -4.778028    0.795199   -1.209127
H     -3.944694    1.513837    0.220875
H     -5.261044    0.289557    0.473315
H     -3.229606   -2.572410   -0.597905
H     -4.714862   -1.780085   -1.342282
H     -4.623330   -2.141046    0.471384
H      2.911570    1.938697   -1.799666
H      3.322832    2.450767   -0.074258
H      2.508436    3.555380   -1.197060
H     -0.222851    2.935241    0.922338
H      1.333614    3.838498    0.651850
H      0.151610    3.730667   -0.700452
H     -0.711480   -1.901533    0.112012
H     -0.991626   -2.152767    1.889707
H      1.747631   -1.958026   -0.654498
H      2.613702   -0.421160   -1.207842
H     -1.321702    0.498569    1.924896
H     -1.678729    1.473972   -0.304450
H     -0.029623   -0.570126   -1.606050
H      5.562420   -3.678633    0.827014
H      0.797326   -0.190613    0.000000
H     -0.797233   -0.190678   -0.000000
H     -0.793671   -0.196136   -0.000000
H      0.794655   -0.195323    0.000000
H     -0.824548   -0.184985   -0.000000
H      0.825604   -0.184245    0.000000
