133

C     -0.778922    2.112073    2.287781
C      3.179467   -0.160830   -1.508755
C      5.864767    0.649313    2.338169
C      4.908108    2.251048   -0.934255
C      3.787781   -1.280644    1.007247
C      0.745909    0.577837   -0.880368
C      3.411594    2.095394   -0.674155
C      5.574775    2.060902    0.403607
C      2.404232   -1.468910    1.556003
C     -0.712922    0.755191   -0.420962
C      0.856968    0.204642    2.562683
C     -9.222285   -1.445198    1.554716
C     11.295311    0.349186   -2.753303
C     -3.097317   -1.835457    3.408893
C     -3.379488    3.281909   -2.174432
C      0.096896   -1.133240    0.853407
C     -0.302100    0.919475    1.957590
C     -4.112502    4.157875   -1.180571
C     -9.334757   -1.968246    0.115000
C     10.125689   -0.484055   -2.265667
C     -3.843185   -2.364392    2.204611
C      4.011530    0.204492    0.852951
C      1.701765    0.621304    0.294030
C     -5.551275    3.764949   -1.051614
C     -9.415809   -0.766983   -0.782242
C     10.692630   -1.728849   -1.663424
C     -5.204329   -1.707052    2.052930
C     -8.846583   -1.030456   -2.144303
C     10.977845   -1.575227   -0.204889
C     -5.661582    2.271060   -1.398481
C     -7.398230   -1.449664   -2.004360
C      9.764719   -1.112182    0.571921
C     -5.337765   -1.322082    0.577607
C     -4.269203   -0.327379    0.307425
C     -4.397001    1.608751   -0.966809
C     -7.135168   -2.066643   -0.656937
C      8.738890   -0.629842   -0.433718
C     -2.935048   -1.038114    0.501199
C      6.393365   -0.210214    0.177831
C      3.115266    0.658172   -0.242180
C      5.418184    0.641766    0.842454
C      1.407139   -0.443925    1.276249
C     -0.868891    0.025640    0.862288
O    -10.374115   -0.674207    1.814504
O     10.779513    1.509656   -3.314442
O     -1.937582   -2.555920    3.655433
O     -3.445955    4.174303    0.028718
O     -6.375282    4.510236   -1.897874
O    -10.728705   -0.299830   -0.870111
O      9.887041   -2.837392   -1.919910
O     -6.251606   -2.567238    2.347540
O     -8.887552    0.123841   -2.922115
O     12.035102   -0.693923    0.006469
O     -6.773080    1.780605   -0.707339
O     -7.013600   -2.296580   -3.047736
O      9.299293   -2.202312    1.300504
O      6.067929   -1.256692   -0.403230
O     -3.339849    1.971083   -1.794225
O     -8.223900   -2.718732   -0.143258
O      9.401398    0.204325   -1.327611
O     -3.124004   -2.331226    1.030289
O     -6.603585   -1.086986    0.180556
O     -4.429182    0.212991   -0.955511
O      7.727695    0.142675    0.186272
O     -2.118242   -0.290570    1.276866
H     -1.612561    2.584062    1.825085
H     -0.287350    2.651673    3.087872
H      2.721148   -1.146387   -1.440781
H      2.536026    0.413558   -2.249127
H      4.180885   -0.140496   -1.979712
H      5.050907    1.059890    2.941994
H      6.815262    1.217358    2.396623
H      6.103903   -0.404645    2.587596
H      5.297248    1.525634   -1.650642
H      5.043750    3.302504   -1.262231
H      4.567852   -1.652545    1.705893
H      3.876412   -1.851098    0.071155
H      0.842981   -0.353577   -1.474393
H      0.955801    1.463525   -1.514781
H      2.898099    2.302113   -1.618113
H      3.146220    2.754025    0.152951
H      6.665917    2.308993    0.302602
H      5.127884    2.708813    1.190031
H      2.523298   -1.565557    2.676708
H      2.062742   -2.490828    1.240986
H     -0.986124    1.823410   -0.398706
H     -1.298905    0.293312   -1.259045
H      0.486201   -0.632070    3.191103
H      1.569119    0.865420    3.040621
H     -9.219191   -2.268592    2.280804
H     -8.343233   -0.818011    1.709262
H     11.846846   -0.196161   -3.553918
H     12.014452    0.569850   -1.962942
H     -3.734255   -2.000485    4.331384
H     -2.947749   -0.737056    3.394555
H     -2.336698    3.664333   -2.244158
H     -3.897499    3.344487   -3.152483
H      0.176699   -1.673023   -0.082601
H     -0.109883   -1.864016    1.683348
H     -4.052390    5.196863   -1.588421
H    -10.278103   -2.559612    0.116380
H      9.448644   -0.731465   -3.105327
H     -4.045167   -3.437943    2.411948
H      3.558783    0.646154    1.806199
H      1.538426    1.639831    0.757261
H     -5.882110    3.853109    0.003228
H     -8.840154    0.046088   -0.298696
H     11.676217   -1.964569   -2.157255
H     -5.244328   -0.857816    2.734713
H     -9.361500   -1.872649   -2.657466
H     11.343254   -2.572973    0.179977
H     -5.884511    2.190858   -2.463428
H     -6.778375   -0.542129   -2.118046
H     10.039874   -0.320622    1.309513
H     -5.016051   -2.284770    0.050605
H     -4.242308    0.548175    1.002329
H     -4.197009    1.935258    0.072172
H     -6.356182   -2.871569   -0.839812
H      8.273416   -1.497875   -0.897588
H     -2.490661   -1.219921   -0.485842
H    -10.181227    0.013193    2.494836
H     11.216901    2.277304   -2.881837
H     -1.274965   -1.985928    4.116877
H     -4.054675    4.405154    0.781611
H     -7.278789    4.094680   -1.835858
H    -11.363272   -0.791282   -0.298169
H      9.430819   -2.779623   -2.790767
H     -5.862843   -3.445692    2.597884
H     -9.434086   -0.062391   -3.721144
H     12.339257   -0.871527    0.952739
H     -7.616372    2.000695   -1.149722
H     -7.625769   -3.070456   -3.093407
H      8.518855   -2.644466    0.883672
