48

C      7.559958   -0.773197    1.424841
C     -7.391352    0.137422    0.458336
C      7.221592   -1.189450    0.140886
C      6.654423   -0.001906    2.104951
C     -6.566107   -0.581526    1.276120
C     -6.872007    0.793576   -0.636860
C      6.016390   -0.844193   -0.441317
C      5.460654    0.330032    1.506274
C     -5.213817   -0.662538    1.023064
C     -5.521573    0.732346   -0.918430
C     -1.259249    1.018810   -0.792567
C     -1.262247   -1.343827   -0.406094
C     -2.628711    0.666787   -1.376630
C     -2.477058   -0.978554    0.444327
C      2.105794    0.511408   -1.813834
C      0.662131   -0.053144    0.153718
C      5.103431   -0.067531    0.242375
C      1.609730    0.947837   -0.462748
C     -4.709825    0.007054   -0.087646
C      3.814530    0.312466   -0.360028
N      3.408273   -0.026359   -1.535469
N      2.835371    1.114263    0.284564
N     -0.472532   -0.190844   -0.750231
N     -3.325109   -0.079178   -0.348951
H      8.516886   -1.054286    1.870929
H     -8.458631    0.209585    0.646889
H      7.970398   -1.799728   -0.362830
H      6.908044    0.333356    3.116845
H     -6.953834   -1.108950    2.148695
H     -7.507385    1.357648   -1.280794
H      5.805300   -1.194804   -1.441158
H      4.768249    0.937768    2.066277
H     -4.557073   -1.232204    1.672297
H     -5.123583    1.259298   -1.796026
H     -0.813016    1.774181   -1.475855
H     -1.379635    1.467110    0.212906
H     -0.640056   -2.039442    0.209123
H     -1.646226   -1.858186   -1.305179
H     -3.145744    1.596459   -1.676316
H     -2.465738    0.009248   -2.246839
H     -3.051763   -1.944611    0.521635
H     -2.199601   -0.558370    1.411346
H      2.126242    1.353011   -2.538175
H      1.383375   -0.277582   -2.169293
H      0.352660    0.335996    1.145146
H      1.193655   -1.012267    0.291280
H      1.149017    1.964993   -0.524876
H      3.015770    1.702024    1.143416
