47

C      4.513583    1.772516   -0.079765
C      4.540205   -0.575450    0.083265
C     -5.071838   -0.233317    0.163528
C     -4.565116   -1.393614    0.147757
C     -3.088638    0.918474    0.304970
C      0.919064   -0.010469   -1.024088
C     -5.211691    2.167492    0.152656
C     -1.010436   -2.024102    0.113398
C      2.639951    0.640445    0.687457
C     -4.525124    1.024750    0.241512
C      1.514306   -0.345617    0.295337
C      0.137805    0.230958    0.310087
C     -2.402437   -0.286800    0.271684
C     -1.074892   -0.621258    0.225488
C     -3.116983   -1.506223    0.187959
N     -5.861925    3.222641    0.080362
N     -2.262408   -2.491419    0.116289
N      3.706130    0.549608   -0.334035
C      0.407683    0.815844    0.919628
C     -0.734033    1.002603    0.350745
C      1.306609   -0.250185    0.606445
C     -1.296398    0.199035   -0.671168
O      2.403660   -0.247817    1.303662
O      1.210551   -1.264745   -0.294675
O     -2.469633    0.569483   -1.107862
O     -0.828754   -0.910242   -1.293528
H      5.002014    2.066115   -1.008161
H      5.127684    1.548971    0.777859
H      3.760252    2.579945    0.182959
H      4.644630   -0.459672    1.207460
H      3.981265   -1.495863   -0.129690
H      5.517098   -0.560622   -0.415261
H     -6.220309   -0.135269    0.167912
H     -5.039323   -2.358334    0.051785
H     -2.538794    1.850014    0.340482
H      0.510552   -0.802335   -1.705470
H      1.031446    0.965881   -1.540122
H     -0.103596   -2.583869    0.040406
H      2.248360    1.654971    0.619489
H      3.057766    0.345151    1.647299
H      1.737890   -1.395965    0.500231
H      0.046328    1.231177    0.694687
H     -2.542821   -3.488909    0.009352
H      0.709835    1.554867    1.723123
H     -1.307789    1.883741    0.716894
H      1.999171   -1.588194   -0.877746
H     -1.400903   -1.764389   -1.375518
