48

C     -7.288828    0.528108    1.355776
C      7.285497    0.922494    0.945311
C     -6.721048   -0.724006    1.494829
C     -6.622540    1.388547    0.502438
C      6.707677    1.414915   -0.204359
C      6.479881    0.241204    1.824756
C     -5.572352   -1.083710    0.827793
C     -5.479750    1.052394   -0.170643
C      5.363954    1.230282   -0.464287
C      5.141044    0.063110    1.554914
C      1.500039   -0.289072   -1.413843
C      0.913816   -0.351837    0.909018
C      2.492157    0.809441   -1.016956
C      2.382241   -0.368615    1.158851
C     -1.951624   -1.823690   -1.463444
C     -0.751452    0.229845   -0.665113
C     -4.942440   -0.200894   -0.009243
C     -1.597510   -0.379523   -1.725581
C      4.529436    0.544544    0.410414
C     -3.704706   -0.590617   -0.724100
N     -3.164541   -1.742426   -0.643074
N     -2.930656    0.221767   -1.591008
N      0.498657   -0.374323   -0.431945
N      3.153959    0.342743    0.165042
H     -8.187643    0.835075    1.866911
H      8.323843    1.048321    1.177009
H     -7.228782   -1.410672    2.158537
H     -7.052625    2.382941    0.377837
H      7.365481    1.949302   -0.882734
H      6.927397   -0.148034    2.729166
H     -5.147054   -2.089504    0.961211
H     -4.982292    1.762380   -0.837627
H      4.969763    1.629711   -1.362420
H      4.553702   -0.479982    2.280729
H      2.095345   -1.234675   -1.417351
H      1.133335   -0.142660   -2.431756
H      0.426498    0.512785    1.436093
H      0.485909   -1.258556    1.431725
H      3.144039    0.929004   -1.903782
H      1.985372    1.778627   -0.863767
H      2.795089   -1.396291    1.224783
H      2.582971    0.116062    2.136185
H     -1.211292   -2.377040   -0.892568
H     -2.264786   -2.318566   -2.407785
H     -0.630167    1.317345   -0.938145
H     -1.322108    0.253834    0.290766
H     -1.211082   -0.166039   -2.717555
H     -3.271826    1.088758   -2.041009
