52

C      6.038617    2.226831   -1.210067
C      5.058431   -2.120141    0.335513
C     -6.795040   -1.130256   -1.677452
C     -1.525434   -4.352004    0.291041
C     -2.065051    3.665274    1.251003
C      3.540248    2.170950   -1.144511
C     -4.412282   -0.273963   -0.482346
C      1.752074    0.481531   -1.250965
C     -3.642845   -2.514467   -0.429121
C      0.775098    1.336500    1.099977
C      4.796478    1.547852   -0.608426
C      5.025125   -0.658911    0.415605
C     -4.625006   -1.606214   -0.757359
C      2.352447    1.514943   -0.584123
C     -3.227436    0.195823    0.124302
C      0.126613    0.277877    0.451759
C      0.621767   -0.157367   -0.739884
C     -2.490425   -2.078524    0.158728
C     -2.269075   -0.708158    0.443274
C     -1.019360   -0.334053    1.069585
C     -3.125423    1.620446    0.386770
O      5.179303   -0.122422    1.552457
O      0.101532   -1.111839   -1.400065
O     -0.922512   -0.585070    2.315830
O     -4.061257    2.364663   -0.009597
O     -5.792747   -2.066952   -1.351196
O     -1.509919   -2.967075    0.489140
O     -2.098859    2.261024    1.035389
O      1.822920    1.872860    0.549327
O      4.835551    0.160584   -0.677247
H      6.898782    1.834661   -0.644234
H      6.109824    2.078110   -2.292157
H      5.865468    3.321060   -1.028395
H      4.015038   -2.522983    0.271582
H      5.510659   -2.555793    1.256356
H      5.638611   -2.398879   -0.590720
H     -6.400956   -0.472136   -2.476201
H     -6.944980   -0.475459   -0.799538
H     -7.741956   -1.630974   -1.991547
H     -0.542676   -4.781725    0.579156
H     -2.351984   -4.874598    0.849673
H     -1.745997   -4.570126   -0.795839
H     -2.547604    3.975775    2.193714
H     -2.648079    4.123178    0.392235
H     -1.051590    4.098424    1.139688
H      3.527751    2.205397   -2.257771
H      3.553344    3.247688   -0.829739
H     -5.157653    0.441215   -0.733477
H      2.130079    0.133613   -2.180821
H     -3.839159   -3.564280   -0.657519
H      0.372250    1.679236    2.057308
H      4.907295    1.798856    0.494985
