34

C      2.969194    1.704278   -0.621502
C      2.467308   -1.874513   -0.834494
C      3.238225    0.549675    0.316208
C     -1.162340   -0.423518    1.751428
C     -2.255052    0.363694    2.095620
C      0.205779   -1.585569   -0.028457
C     -1.800961   -0.282144   -0.502071
C     -4.880115    1.562662   -0.133853
C      1.454400   -0.814559   -0.378398
C     -0.911622   -0.764320    0.439142
C     -3.125845    0.829363    1.125550
C     -2.898789    0.504759   -0.187002
N      2.028030   -0.129057    0.731781
O     -4.276547    1.614154    1.150649
O     -3.879736    1.065402   -1.001081
Cl     0.690453    0.000000    0.000000
H      1.875560    1.771082   -0.807880
H      3.467949    1.551111   -1.619264
H      3.356624    2.636256   -0.142665
H      2.979159   -2.338459    0.022022
H      1.919685   -2.718515   -1.349158
H      3.141831   -1.448649   -1.595556
H      3.926170   -0.148389   -0.235781
H      3.828386    0.901379    1.194083
H     -0.495104   -0.780042    2.502253
H     -2.460003    0.636167    3.122163
H     -0.105584   -2.120338   -0.949631
H      0.474845   -2.390442    0.698114
H     -1.668381   -0.511899   -1.571371
H     -5.136523    2.584083   -0.443888
H     -5.732862    0.869563   -0.167105
H      1.252067   -0.114793   -1.188687
H      2.204251   -0.698421    1.565855
H     -0.690453    0.000000    0.000000
