82

C      6.102163   -5.071477    1.924708
C      4.060602    1.252824    0.172177
C      5.247992    1.342119   -1.955779
C     -5.492182   -3.958987    0.324806
C     -5.433372   -0.235934    3.627586
C     -1.084368    1.252619    1.641172
C      5.531641   -3.821403    1.277276
C      4.241430   -3.408411    1.906429
C     -0.774030    3.412310   -1.102650
C     -2.606118    1.959103   -1.484695
C     -1.644325    4.434376   -0.856025
C     -3.520960    2.982542   -1.237699
C     -5.318695    5.313616   -0.671341
C     -5.761235    6.567038   -0.303762
C      3.599203   -2.191022    1.349603
C     -5.428945   -2.104669    1.949307
C     -3.680745   -2.250149    0.373289
C     -3.664968   -0.513109    1.928080
C     -0.265584    1.045099   -1.683731
C      4.394840    0.456771   -1.071378
C     -4.840320   -2.733559    0.895190
C     -4.848919   -0.982836    2.482174
C     -1.253878    2.173485   -1.416416
C     -3.026239    4.223669   -0.921222
C     -3.019009   -1.093489    0.870426
C      0.221809    0.580908   -0.361812
C     -3.957627    5.299021   -0.626962
C      3.078824    0.066675   -1.735054
C      3.324893   -0.693710   -3.011622
C     -1.816289   -0.671583    0.227698
C      1.132840   -0.533073   -0.255738
N      2.775590   -1.826979   -3.193673
N     -4.612673    7.263335   -0.050813
N     -0.949633    0.361110    0.531381
N      2.375558   -0.789494   -0.821228
O      4.141500   -0.145938   -3.963487
O     -1.476380   -1.372542   -0.817024
O      0.726417   -1.521573    0.537858
O      2.206943   -3.464546   -0.585606
O      4.349358   -2.548559   -1.227726
O     -3.589420    6.513713   -0.243380
S      3.161402   -2.294699   -0.366292
H      6.430411   -4.799791    2.930367
H      5.370801   -5.872430    2.019273
H      6.902581   -5.432317    1.264871
H      3.267095    0.781413    0.749978
H      3.707098    2.256377   -0.214647
H      4.982320    1.447444    0.796288
H      5.947189    0.782775   -2.570980
H      5.794894    2.041930   -1.285455
H      4.567373    2.001641   -2.546836
H     -5.155684   -4.144745   -0.705974
H     -5.212291   -4.798655    0.981467
H     -6.587675   -3.769058    0.412899
H     -6.477377   -0.561420    3.824114
H     -5.471847    0.836871    3.297472
H     -4.758635   -0.344594    4.490072
H     -1.888607    1.971213    1.565488
H     -1.113096    0.736147    2.619838
H     -0.136601    1.906265    1.647653
H      5.491270   -3.908219    0.187534
H      6.278289   -3.005059    1.477061
H      4.356945   -3.257849    3.008879
H      3.520746   -4.255391    1.803957
H      0.301033    3.605570   -1.038236
H     -3.009551    0.992854   -1.742198
H     -1.275180    5.430609   -0.602852
H     -4.583093    2.788187   -1.296289
H     -5.974032    4.480593   -0.951156
H     -6.740458    6.960153   -0.217004
H      4.217858   -1.273238    1.528018
H      2.653692   -2.019581    1.929598
H     -6.335918   -2.453940    2.387157
H     -3.237135   -2.770066   -0.466040
H     -3.257156    0.362835    2.361088
H      0.457490    1.495079   -2.366236
H     -0.817974    0.259223   -2.253506
H      4.970486   -0.415537   -0.749860
H      0.764937    1.472965    0.090582
H      2.585209    0.986887   -2.006982
H      2.858026   -2.439776   -4.006731
H      3.999477   -0.347959   -4.934302
