45

C      4.527925   -0.217596   -1.582982
C      4.556265    1.192098    0.414957
C     -2.001036    2.075993    1.790720
C     -5.524032    1.144073    1.486719
C      0.665450   -2.732403   -1.722267
C     -3.778682   -1.463754   -1.314741
C     -2.430113   -1.449954   -1.528669
C     -4.341459   -0.608910   -0.398029
C      1.965588    0.414995   -0.465880
C      4.272327   -0.196504   -0.104077
C     -1.650389   -0.566657   -0.810931
C      0.516610    0.302191   -0.341019
C      2.812543   -0.578870    0.209916
C     -3.571003    0.289421    0.335681
C     -2.213283    0.305131    0.121994
C     -0.288745   -0.548288   -1.022931
C     -0.106294    1.141697    0.571161
N     -1.422970    1.164081    0.814699
O      2.728804   -0.479288    1.613164
O      0.610711    1.961369    1.238135
O     -4.127502    1.146032    1.253238
O      0.226676   -1.409071   -1.940298
H      4.437280    0.817279   -1.997405
H      3.857500   -0.928248   -2.109771
H      5.558945   -0.540578   -1.757535
H      4.366676    1.982445   -0.325278
H      5.597053    1.251459    0.850947
H      3.890310    1.428307    1.290144
H     -2.407763    1.585870    2.679385
H     -2.633848    2.864346    1.337693
H     -1.123397    2.672731    2.199921
H     -6.073507    1.211008    0.506156
H     -5.803951    2.032952    2.089674
H     -5.845858    0.235655    2.046828
H      0.027683   -3.479386   -2.253171
H      1.691117   -2.883595   -2.174503
H      0.791040   -2.974591   -0.652962
H     -4.402101   -2.136881   -1.856939
H     -1.945282   -2.118227   -2.253078
H     -5.413827   -0.587775   -0.196883
H      2.277548    1.427034   -0.123139
H      2.219636    0.406268   -1.552717
H      4.964234   -0.914877    0.388521
H      2.738057   -1.617565   -0.129720
H      1.805062   -0.619416    1.934978
