82

C      5.016249    0.672622    3.924527
C      2.705578   -0.735159   -4.307149
C      1.988947    1.296373   -3.042394
C     -2.679488    6.548083   -1.204458
C     -1.478079    6.250042    3.582077
C     -2.084373    1.524928   -1.474597
C      4.181278   -0.009863    2.823400
C      4.455599    0.628213    1.498555
C     -2.578232   -3.214813   -0.800827
C     -2.421934   -2.973248    1.534040
C     -2.579618   -4.586952   -0.682621
C     -2.424056   -4.345952    1.645189
C     -2.570917   -7.585432   -0.288118
C     -2.543672   -8.838984    0.340104
C      3.742143    0.050552    0.327743
C     -2.072084    6.336046    1.169272
C     -2.060525    4.357358   -0.156930
C     -1.486337    4.239079    2.140924
C     -2.499015   -0.934370    0.082369
C      1.731352   -0.181803   -3.276827
C     -2.264998    5.740963   -0.043241
C     -1.686389    5.583673    2.244106
C     -2.500970   -2.364827    0.275872
C     -2.501885   -5.177117    0.556118
C     -1.675876    3.588551    0.904557
C     -1.205762   -0.190778    0.092707
C     -2.504469   -6.640063    0.706827
C      1.982529   -0.891038   -1.982662
C      1.778966   -2.377932   -2.119239
C     -1.464245    2.189683    0.846599
C     -0.222572   -0.568927   -0.908971
N      1.432542   -2.890907   -3.244528
N     -2.463832   -8.559145    1.652838
N     -1.605144    1.233277   -0.158279
N      1.173180   -0.453140   -0.875323
O      1.961522   -3.217611   -1.034906
O     -1.042212    1.653237    1.973122
O     -0.691369   -1.087865   -1.988601
O      1.520890   -0.558193    1.700547
O      1.704082    1.652478    0.721907
O     -2.443252   -7.261418    1.839139
S      1.980970    0.193126    0.501471
H      4.341274    1.374981    4.440941
H      5.435271   -0.052030    4.631959
H      5.888045    1.203216    3.443778
H      3.538483   -1.271634   -3.842807
H      3.039359    0.125817   -4.957015
H      2.189004   -1.437783   -5.008933
H      1.798963    1.583703   -1.993201
H      1.294521    1.907090   -3.648959
H      3.050336    1.509926   -3.253277
H     -3.103282    5.862171   -1.972051
H     -3.510740    7.263407   -0.936346
H     -1.868875    7.181181   -1.588446
H     -0.629435    5.752221    4.125782
H     -2.441381    6.179404    4.127635
H     -1.142940    7.275157    3.366411
H     -2.206898    0.568175   -2.081605
H     -1.367497    2.153415   -2.061739
H     -3.102912    1.955773   -1.390982
H      4.502521   -1.087761    2.829035
H      3.137809    0.018050    3.143497
H      4.318212    1.751342    1.557891
H      5.567271    0.485421    1.311993
H     -2.663641   -2.816351   -1.831460
H     -2.360909   -2.316819    2.366940
H     -2.641076   -5.214674   -1.547265
H     -2.361638   -4.823565    2.636176
H     -2.632721   -7.425581   -1.350977
H     -2.576014   -9.824442   -0.082546
H      4.085399   -1.000516    0.196714
H      4.068934    0.589079   -0.612945
H     -2.223895    7.411268    1.285114
H     -2.221960    3.954666   -1.144187
H     -1.180544    3.684169    3.024890
H     -3.188171   -0.500750    0.878817
H     -3.043907   -0.713326   -0.861880
H      0.733281   -0.392057   -3.636217
H     -0.773352   -0.160517    1.125387
H      3.079463   -0.747638   -1.763676
H      1.301099   -3.919117   -3.301956
H      2.268023   -4.177823   -1.118833
