92

C     -5.146217   -2.986668   -1.442688
C     -4.411660   -4.054659    0.602550
C     -2.011279    3.515397   -0.339780
C      0.269195   -4.356772    1.723615
C      2.409438   -3.837798    0.667762
C     10.134761    0.807419   -0.949050
C     -7.985150    4.965278   -0.468798
C     -7.992623    4.591256    0.854276
C     -6.818773    4.947342   -1.202653
C      0.216871    1.649155   -1.146560
C     -6.796690    4.192382    1.442068
C     -5.629226    4.540173   -0.581095
C     -0.105988    1.390588    0.267380
C      1.430107    1.969459   -1.549215
C      6.032737    0.255125   -1.503209
C      7.387960    0.427254   -1.312848
C     -2.945500   -2.415293   -0.612338
C      6.055873   -1.699703   -0.198551
C      3.913138   -0.941265   -1.187331
C      1.300465   -2.080457    1.960307
C     -4.334714   -2.742193   -0.161327
C     -2.279933    2.487158    0.738806
C      5.339045   -0.799263   -0.958374
C     -5.618446    4.163537    0.738824
C      7.433359   -1.531420   -0.000530
C      3.025557   -0.246277   -0.157095
C     -1.619538    1.165193    0.390789
C      8.098393   -0.457309   -0.565024
C     -1.982313   -2.137723    0.524106
C      2.600697    2.110155   -0.708545
C     -3.752328    2.402640    0.942901
C     -4.363949    3.741219    1.379411
C      3.273675   -0.791626    1.194787
C     -2.408699   -0.999852    1.351674
C      0.330342   -2.764722   -0.172585
C      1.066357   -3.258343    1.020365
Cl     8.372536   -2.653714    0.958554
N      2.550754   -1.483411    1.923514
N      3.216552    1.156964   -0.158290
O      3.089520    3.454003   -0.507326
O      4.554253   -0.460426    1.734652
O     -3.434344   -1.172340    2.082890
O      0.711727   -3.138802   -1.308968
O      9.485179   -0.299913   -0.357524
O     -1.783767    0.208560    1.384905
O     -0.724473   -1.930035   -0.024438
O     -4.327857    2.614407    2.192045
H     -4.925264   -2.226027   -2.215962
H     -6.210869   -3.100793   -1.228822
H     -4.787092   -3.995926   -1.801033
H     -4.550261   -4.915856   -0.097328
H     -3.530838   -4.276424    1.200797
H     -5.356150   -4.030624    1.208963
H     -2.352297    3.061398   -1.306047
H     -2.568632    4.449933   -0.173304
H     -0.922513    3.716946   -0.445725
H     -0.382131   -4.861328    0.984620
H     -0.243507   -3.997776    2.626805
H      0.973898   -5.169858    2.069802
H      3.270799   -3.229350    0.980104
H      2.505226   -4.864954    1.088957
H      2.483263   -3.969635   -0.433140
H     10.008455    0.851540   -2.047039
H      9.807524    1.777775   -0.506741
H     11.223222    0.713543   -0.687134
H     -8.893317    5.286842   -0.980876
H     -8.925535    4.619656    1.392427
H     -6.841536    5.246649   -2.240492
H     -0.577283    1.566880   -1.905007
H     -6.837641    3.898417    2.503180
H     -4.751652    4.548058   -1.209096
H      0.083049    2.330087    0.890687
H      0.459001    0.623007    0.773651
H      1.537626    2.170563   -2.652269
H      5.518504    0.973223   -2.097051
H      7.909206    1.281456   -1.763059
H     -2.999413   -1.489451   -1.219335
H     -2.585629   -3.262871   -1.223782
H      5.561593   -2.549234    0.255037
H      3.577889   -0.549906   -2.169954
H      3.635225   -2.010040   -1.174555
H      0.407444   -1.396260    1.938518
H      1.190337   -2.551973    3.002210
H     -4.853091   -1.914922    0.357656
H     -1.769844    2.868500    1.658179
H      2.002804   -0.494641   -0.464764
H     -1.982520    0.875565   -0.596241
H     -1.914687   -3.038642    1.206758
H     -4.359512    1.793159    0.270699
H     -3.677726    4.587218    1.612340
H      4.103376    3.519191   -0.319637
H      4.715477   -0.377793    2.723976
