34

C     -3.646920    1.889034    0.326616
C     -2.476964   -1.845641   -0.983710
C     -3.033737    0.859005   -0.611027
C      1.050618   -0.061719    1.418992
C      2.145630    0.707866    1.785667
C     -0.252830   -1.536622   -0.066449
C      2.009608   -0.649217   -0.654324
C      5.249030    0.905181   -0.046702
C     -1.354065   -0.822022   -0.758721
C      0.937409   -0.740726    0.244353
C      3.192404    0.780074    0.876968
C      3.136544    0.106426   -0.346979
N     -1.940384    0.205512    0.076389
O      4.414395    1.461060    0.948915
O      4.330140    0.399652   -0.984573
Cl     0.690242    0.000000    0.000000
H     -2.892040    2.215868    1.065444
H     -4.025588    2.730881   -0.266847
H     -4.466924    1.358313    0.897255
H     -3.189494   -1.788145   -0.138182
H     -2.984322   -1.630411   -1.960061
H     -2.037327   -2.847540   -1.028634
H     -3.780728    0.090031   -0.890401
H     -2.681075    1.400724   -1.509001
H      0.218766   -0.125079    2.124930
H      2.183309    1.233350    2.742116
H      0.079453   -2.380638   -0.741656
H     -0.656345   -2.032073    0.850450
H      1.976189   -1.163890   -1.602564
H      5.900008    1.701137   -0.475876
H      5.865786    0.095328    0.401156
H     -1.067061   -0.382737   -1.712501
H     -2.203488   -0.132982    1.018956
H     -0.690242    0.000000    0.000000
