43

C      2.170735   -0.607604   -1.014100
C      1.316345   -1.817147   -1.304180
C      2.860276   -0.784098    0.297333
C     -3.394928    0.228706   -0.293619
C     -4.319374    1.410138    0.025809
C      0.264252   -2.051104   -0.273633
C     -1.604822   -1.153218    0.789690
C     -2.572649   -0.011655    0.945130
C      3.744463    0.393117    0.654816
C      2.996683    1.658334    0.755127
N     -5.165260    1.739655   -1.093980
N      4.791660    0.543861   -0.333863
N     -0.602855   -0.887163   -0.216976
O     -1.918591    1.140475    1.314129
O      2.036247    1.759945    1.556137
O      3.308275    2.770324   -0.009936
Cl     0.683658    0.000000    0.000000
Cl     0.692091    0.000000    0.000000
H      1.471096    0.270136   -1.011707
H      2.870510   -0.501144   -1.869009
H      0.824401   -1.700344   -2.295214
H      2.011699   -2.700330   -1.369288
H      3.515914   -1.676022    0.236236
H      2.081787   -0.912273    1.081616
H     -2.745417    0.555424   -1.118801
H     -4.052964   -0.610110   -0.548284
H     -3.708425    2.304263    0.287871
H     -4.967602    1.146085    0.879280
H      0.655177   -2.296913    0.721217
H     -0.381002   -2.878266   -0.656258
H     -1.071803   -1.262090    1.756512
H     -2.134785   -2.095962    0.564782
H     -3.275124   -0.274488    1.763650
H      4.250528    0.120410    1.612144
H     -4.644545    2.118874   -1.896072
H     -5.687588    0.849084   -1.344127
H      5.610579    0.992756    0.160959
H      5.152363   -0.406814   -0.625446
H     -1.051835   -0.769275   -1.160252
H     -1.715442    1.717616    0.536727
H      3.082024    3.676816    0.385639
H     -0.683658    0.000000    0.000000
H     -0.692091    0.000000    0.000000
