43

C     -2.004325    0.481587    0.613207
C     -1.204457   -0.395098   -0.284337
C     -3.316611   -0.150157    0.931420
C      4.370137    0.927862   -0.148365
C      5.343758    0.003577   -0.846032
C      0.143057    0.299678   -0.566825
C      2.066694    1.115829    0.618115
C      3.034122    0.193475   -0.076276
C     -4.154173   -0.406113   -0.276685
C     -5.420928   -1.023704    0.185415
N      5.539821   -1.240769   -0.169370
N     -4.458258    0.850275   -0.947250
N      0.783031    0.470705    0.717798
O      3.184206   -0.992087    0.626074
O     -5.363061   -2.115578    0.794604
O     -6.618899   -0.410492   -0.051223
Cl     0.688825    0.000000    0.000000
Cl     0.686606    0.000000    0.000000
H     -2.177350    1.440608    0.078473
H     -1.472329    0.744408    1.548578
H     -1.017188   -1.365892    0.217032
H     -1.724734   -0.553211   -1.255940
H     -3.911310    0.511205    1.624291
H     -3.182441   -1.112082    1.494946
H      4.278049    1.847119   -0.725667
H      4.704739    1.119173    0.905754
H      6.308640    0.527035   -1.045175
H      4.912065   -0.213238   -1.845239
H     -0.027004    1.233537   -1.097999
H      0.701410   -0.408682   -1.211133
H      2.442320    1.233967    1.666946
H      2.045024    2.068164    0.086326
H      2.687079    0.041922   -1.110595
H     -3.630311   -1.073829   -1.006423
H      5.146047   -2.065959   -0.627846
H      5.501090   -1.208595    0.853283
H     -4.377891    1.651875   -0.302590
H     -5.385740    0.803618   -1.417680
H      0.856686   -0.411296    1.237277
H      2.864918   -1.726196    0.040414
H     -7.465882   -0.692642    0.426949
H     -0.688825    0.000000    0.000000
H     -0.686606    0.000000    0.000000
