71

C      6.702459    0.429043   -1.510185
C     -6.085793    2.579805    0.569046
C      6.050861    1.701299   -1.165790
C     -4.752945    3.218963    0.254207
C      0.857649    0.060585   -1.239186
C     -0.552294    0.284220   -1.792925
C     -0.478545   -2.625111    1.343275
C      5.911933   -0.841280   -1.334315
C     -5.903668    1.128232    1.003412
C      4.838173    1.693814   -0.309438
C     -3.929464    2.422021   -0.733002
C      1.522260    0.503810   -0.258826
C     -1.635227    0.073869   -1.095976
C      0.682333   -1.702607    1.345489
C     -1.476711   -2.427700    0.260757
C      4.086060   -1.834727    0.106418
C     -4.864870   -0.993739    0.140238
C      5.009860   -0.689918   -0.149736
C     -5.158709    0.447822   -0.089007
C      4.030722    0.425776   -0.570152
C     -3.754874    1.040275   -0.142928
C      2.903671    0.253396    0.305264
C     -3.102858    0.078179   -1.080810
C      2.929993   -1.184592    0.808795
C     -3.499144   -1.281322   -0.363985
N      1.724834   -1.906358    0.389285
N     -2.533689   -1.541400    0.675522
Cl     0.685505    0.000000    0.000000
Cl     0.689850    0.000000    0.000000
H      7.052883    0.516202   -2.586981
H      7.667303    0.282339   -0.949731
H     -6.513112    3.120200    1.439580
H     -6.761898    2.672806   -0.276930
H      5.796787    2.268360   -2.115051
H      6.843107    2.358735   -0.681069
H     -4.946785    4.226793   -0.166741
H     -4.153268    3.269533    1.194268
H      1.309303   -0.659066   -2.068297
H     -0.511224    0.623024   -2.860247
H     -1.075452   -2.521453    2.318518
H     -0.134428   -3.703827    1.395394
H      5.301843   -0.972723   -2.265684
H      6.613825   -1.702394   -1.229101
H     -6.915298    0.686327    1.086224
H     -5.324131    1.097313    1.949165
H      5.142796    1.628201    0.770955
H      4.258012    2.618903   -0.513631
H     -2.949438    2.921182   -0.824972
H     -4.431950    2.267392   -1.707953
H      1.180210    1.307713    0.513288
H     -1.566881   -0.099596    0.103876
H      0.281402   -0.673665    1.423911
H      1.142785   -1.836692    2.408238
H     -1.937820   -3.472399    0.102424
H     -0.968047   -2.215065   -0.671293
H      4.581189   -2.632850    0.677281
H      3.777951   -2.227923   -0.908046
H     -5.652815   -1.587000   -0.426400
H     -5.018370   -1.259432    1.214495
H      5.557218   -0.352166    0.751872
H     -5.637704    0.602978   -1.072400
H      3.831446    0.326924   -1.661511
H     -3.301344    1.045341    0.865670
H      3.070287    0.854212    1.235084
H     -3.645449    0.032193   -2.012234
H      3.035173   -1.249119    1.873385
H     -3.467998   -2.032057   -1.163480
H      1.988496   -2.929327    0.442947
H     -3.040621   -1.912267    1.502808
H     -0.685505    0.000000    0.000000
H     -0.689850    0.000000    0.000000
