115

C      2.561636    1.773694   -2.626077
C      6.182883    2.775197   -0.221389
C     -1.927043    0.284083    1.333080
C     -4.377742    2.706566   -1.889657
C     -2.842635    3.262441    1.524092
C     -2.778705    0.106577   -1.339398
C      0.805182    1.136535    0.762267
C     -1.503292    2.682043    1.154164
C     -3.613328    3.472214    0.264807
C     -1.514866   -0.638987   -1.503768
C      2.127626    0.658039    0.276994
C      0.328218    0.568258   -2.589111
C    -10.123094   -0.948432   -0.746878
C      3.970203   -5.244807   -1.335910
C      0.827394   -0.963360   -0.936205
C      1.739748    0.876041   -2.151337
C      5.868083    2.606727    1.229645
C     -8.916876   -0.534876    0.072537
C      3.818040   -4.023394   -0.473364
C     -2.612412    1.495178   -0.760020
C     -0.271531    1.190850   -0.280801
C      7.167088    2.710454    2.000795
C     -8.675352   -1.482453    1.199980
C      5.050476   -3.885863    0.387190
C      7.358788    1.412581    2.761671
C     -7.557226   -2.452160    0.959136
C      5.859849   -2.735996   -0.118335
C      7.149290    0.223346    1.870631
C     -6.345797   -1.817476    0.324505
C      5.042134   -1.458778   -0.145173
C      5.872380    0.339284    1.057138
C     -6.647488   -0.371726    0.066645
C      3.613237   -1.728121   -0.557390
C     -4.979657    1.461476    0.082786
C     -1.639429    1.386296    0.369946
C     -3.866797    2.209498   -0.521140
C     -0.251109    0.083511   -1.271434
C      2.056982   -0.066146   -1.027689
O    -11.190008   -1.136544    0.130117
O      5.064157   -5.111562   -2.163484
O      7.157182    3.754795    2.912188
O     -8.543872   -0.823402    2.442840
O      4.727136   -3.671377    1.725794
O      8.677573    1.402411    3.221382
O     -8.078089   -3.479717    0.138509
O      6.362475   -2.959658   -1.378703
O      8.260484    0.068567    1.068115
O     -5.310942   -1.891860    1.285307
O     -5.437695    1.823922    1.196846
O      5.184448    1.434695    1.523632
O     -7.799876   -0.324535   -0.727849
O      3.645445   -2.923687   -1.310698
O      5.163683   -0.837018    1.086279
O     -5.594422    0.362142   -0.469944
O      3.181385   -0.750135   -1.380931
H      3.547939    1.890385   -2.220352
H      2.252319    2.411172   -3.437651
H      7.267656    2.525019   -0.412524
H      6.099493    3.863688   -0.497844
H      5.516334    2.227893   -0.887368
H     -1.794279    0.630963    2.387858
H     -2.939536   -0.140899    1.251011
H     -1.230700   -0.588263    1.239984
H     -3.536477    3.051129   -2.515313
H     -4.857499    1.846833   -2.390216
H     -5.169340    3.474714   -1.749774
H     -2.648421    4.261413    1.966919
H     -3.370692    2.669446    2.285848
H     -3.455073   -0.521548   -0.687247
H     -3.352761    0.234704   -2.285666
H      0.953520    2.158610    1.193599
H      0.431863    0.531009    1.618369
H     -0.950886    2.479608    2.087753
H     -0.954889    3.457048    0.570711
H     -4.600236    3.919793    0.505744
H     -3.031695    4.158372   -0.384627
H     -1.494840   -1.017625   -2.572404
H     -1.497493   -1.603469   -0.912368
H      2.836908    1.523158    0.107855
H      2.531487   -0.047859    1.033515
H      0.358672   -0.208655   -3.349778
H     -0.124536    1.524357   -2.910539
H     -9.879747   -1.978580   -1.141915
H    -10.352528   -0.240763   -1.541832
H      3.074175   -5.430803   -1.964037
H      4.130385   -6.164137   -0.716759
H      0.804129   -1.711339   -1.740104
H      0.692076   -1.391805    0.052002
H      5.225235    3.450831    1.551740
H     -9.192905    0.460399    0.526392
H      2.960626   -4.164075    0.212962
H     -2.084059    2.068022   -1.585713
H     -0.124774    2.147169   -0.835732
H      8.044608    2.875423    1.325687
H     -9.612293   -2.101015    1.317415
H      5.689077   -4.796916    0.365276
H      6.630638    1.444335    3.614953
H     -7.326699   -2.948758    1.926591
H      6.717658   -2.539782    0.556699
H      7.096417   -0.675057    2.531086
H     -6.104090   -2.395057   -0.572554
H      5.581561   -0.788945   -0.876555
H      6.189637    0.513530    0.001414
H     -6.914490    0.090721    1.039840
H      3.032241   -1.904821    0.360571
H    -11.966670   -0.543175   -0.095174
H      5.231744   -5.892552   -2.726454
H      7.531184    4.601635    2.519756
H     -8.900336    0.082268    2.393804
H      5.437715   -3.916353    2.339165
H      9.093253    2.307905    3.206972
H     -8.735713   -4.007454    0.624083
H      6.252421   -2.182830   -1.996610
H      8.156606    0.368391    0.149232
H     -5.587841   -1.352759    2.046089
