25

C      0.403383    1.992816   -0.445870
C     -2.826668   -0.820510   -0.941377
C      2.777220   -1.453363    0.324316
C      1.418740   -1.555745    0.383531
C      2.547674    0.853070   -0.225636
C      1.166967    0.749985   -0.165692
C     -1.939979   -0.109911    0.120628
C      3.364112   -0.238517    0.016648
C      0.581946   -0.442789    0.136617
C     -2.739255   -0.166109    1.408579
Cl     5.101567   -0.071461   -0.067777
O     -2.360168   -0.852551    2.388714
O     -3.918659    0.552738    1.520220
O     -0.720419   -0.642793    0.217939
K      0.000000    0.000000    0.000000
H     -0.210101    1.928550   -1.373694
H      1.128371    2.835704   -0.669036
H     -0.142169    2.335146    0.445578
H     -2.468230   -1.845874   -1.111182
H     -2.788819   -0.201207   -1.883489
H     -3.883730   -0.793933   -0.613058
H      3.433605   -2.299726    0.511582
H      0.974893   -2.526304    0.628691
H      3.026290    1.806855   -0.467627
H     -1.926569    0.965930   -0.138603
