26

C      2.676358   -0.391104    0.204290
C     -2.301693   -1.016229    0.897343
C      0.614842   -1.518985   -0.445101
C     -0.475620   -0.845131   -1.181847
C     -2.293289    1.264021    1.488475
C      0.725163    1.901335    0.996446
C      1.204088   -0.468977    0.464045
C     -1.781400    0.197304    0.669348
C     -0.780441    0.398555   -0.384656
C      0.572443    0.843213    0.026718
O     -1.899297    2.428163    1.347546
O      0.998337    3.035445    0.647669
H      2.995304    0.652490    0.361296
H      3.265493   -1.010687    0.915400
H      2.936104   -0.663486   -0.834161
H     -3.075946   -1.161589    1.674433
H     -2.046673   -1.913408    0.383948
H      0.227844   -2.330699    0.215574
H      1.401365   -1.933739   -1.137203
H     -1.363479   -1.465547   -1.415691
H     -0.021165   -0.454208   -2.146613
H     -3.031818    1.057386    2.239830
H      0.604356    1.723246    2.055620
H      1.007895   -0.669118    1.524403
H     -1.252463    1.174876   -1.092388
H      1.093692    1.166873   -0.931135
