101

C     -5.415526   -0.222770    1.273324
C     -5.102462    1.258285    0.916633
C      0.934586   -2.504616   -0.218266
C      3.962654    2.700387    0.487411
C      4.069999   -0.056280    0.540954
C     -2.596790    0.460343   -1.127531
C     -2.825444    0.022458    1.149407
C      2.019085   -1.662729    0.037788
C      4.343820   -1.380972    0.298873
C      2.704443    2.931773   -0.254081
C     -0.346901   -1.999792   -0.219963
C      2.673703    1.922104    0.791571
C     -3.994927   -0.133337   -0.910834
C      0.507621    0.151923    0.281143
C      1.795382   -0.338453    0.285156
C     -0.594778   -0.676321    0.026092
C      3.288528   -2.197990    0.041465
C      5.711765   -1.904194    0.314472
C     -4.191547    0.143306    0.563691
Cl     0.217950    1.827215    0.626993
F      2.575573    2.507646   -1.567751
F     -1.383176   -2.838857   -0.472037
N     -4.977721    0.556523   -1.700418
N     -1.902052   -0.113538    0.034112
N      2.839907    0.484416    0.540681
O      3.462451   -3.425614   -0.190679
O      6.644323   -1.101149    0.558052
O      6.006815   -3.219698    0.076270
C      5.280076   -1.642481   -0.388914
C      5.108499   -0.685477   -1.558282
C     -0.629884    2.002054   -1.454472
C     -4.027478   -2.205848    1.340937
C     -4.012427    0.332949    0.133678
C      2.794112    0.326892    1.226949
C      2.751074   -1.152908   -0.549090
C     -1.790856    1.451558   -0.936403
C     -4.184475    1.410579   -0.720866
C     -2.741852   -2.710017    0.808859
C      0.614870    1.503180   -1.132174
C     -2.743297   -1.350842    1.355190
C      4.176516    0.446776    0.589268
C     -0.476794   -0.106015    0.235691
C     -1.709677    0.370857   -0.071209
C      0.719910    0.429549   -0.272961
C     -3.031037    1.947685   -1.241877
C     -5.506164    1.931842   -1.039193
C      4.162981   -0.667124   -0.431618
Cl    -0.255740   -1.434396    1.342291
F     -2.672756   -2.770945   -0.588187
F      1.698000    2.098229   -1.681816
N      4.367117    1.699083   -0.077551
N      1.986946   -0.110490    0.081219
N     -2.811801   -0.193883    0.465120
O     -3.087968    2.935733   -2.034203
O     -5.631821    2.894700   -1.804792
O     -6.621979    1.345354   -0.481409
O     -0.000485    0.380795   -0.000000
O     -0.003710    0.371804   -0.000000
O     -0.001240    0.375756   -0.000000
H     -5.392957   -0.447589    2.344851
H     -6.292617   -0.636810    0.701113
H     -5.684542    1.699177    0.102232
H     -4.898486    1.932020    1.769940
H      1.147152   -3.539348   -0.408778
H      4.768390    2.284095   -0.105212
H      4.277151    3.486306    1.197504
H      4.955645    0.553958    0.755512
H     -2.709513    1.553401   -1.022569
H     -2.149614    0.135363   -2.066904
H     -2.751435   -0.892323    1.772511
H     -2.608248    0.945945    1.716471
H      2.203094    3.900706   -0.065627
H      2.383045    2.088233    1.854079
H     -3.954809   -1.227582   -1.108739
H     -4.675922    0.533722   -2.713367
H     -5.874070    0.056802   -1.603053
H      6.830455   -3.616143    0.511476
H      5.092976   -2.730945   -0.575448
H      6.156581   -1.415600    0.269259
H      5.848007    0.164288   -1.627174
H      4.766223   -1.138154   -2.499174
H     -0.773460    2.847844   -2.126927
H     -4.363299   -2.677108    2.288532
H     -4.843217   -2.009716    0.657513
H     -4.922230   -0.100419    0.574411
H      2.815142   -0.505352    1.950644
H      2.440997    1.279387    1.631246
H      2.682581   -2.119395    0.020540
H      2.439329   -1.345517   -1.594288
H     -2.297240   -3.578300    1.286311
H     -2.506906   -1.069775    2.401448
H      4.981133    0.317884    1.344474
H      4.407576    1.612169   -1.108224
H      3.798541    2.474239    0.282350
H     -7.446824    1.897875   -0.258258
H     -0.811688   -0.190594   -0.000000
H      0.812172   -0.190201    0.000000
H      0.814224   -0.184649    0.000000
H     -0.810513   -0.187156   -0.000000
H      0.823990   -0.187473    0.000000
H     -0.822750   -0.188283   -0.000000
