35

C      3.330579    0.355856   -1.301850
C      2.432804    1.307268   -1.739680
C     -1.601240    1.718418    1.120900
C     -0.785713    0.727245    1.941431
C     -0.053672   -1.657891    1.539850
C     -1.426519   -1.192989   -1.018016
C      2.869625   -0.686618   -0.532959
C      1.104896    1.209118   -1.410600
C      1.071543   -1.908232    0.633013
C     -1.736517    1.096872   -0.258066
C      1.514088   -0.786015   -0.196724
C      0.596382    0.173410   -0.636701
C     -2.349113   -1.010568    1.098446
C     -0.921276   -0.529605    1.152586
C     -0.782457   -0.015228   -0.264010
O      3.758029   -1.676905   -0.069540
O      0.230545    2.166152   -1.857599
O      1.628765   -3.007462    0.562996
O     -3.053149    0.547666   -0.278996
O     -3.213585   -0.962560    1.982279
O     -2.494850   -1.530278   -0.178792
H      4.370668    0.445307   -1.568093
H      2.801856    2.134169   -2.349922
H     -2.572784    1.827259    1.644742
H     -1.145142    2.717319    1.088446
H      0.262075    1.060562    1.874089
H     -1.153519    0.658950    2.981458
H     -0.626051   -2.602126    1.636235
H      0.359589   -1.454752    2.561586
H     -0.709035   -2.006670   -1.173107
H     -1.799618   -0.770400   -1.978865
H     -1.759443    1.814261   -1.060992
H      4.728061   -1.598366   -0.314943
H      0.512040    2.957347   -2.427464
H     -3.387862    0.479486   -1.201139
