33

C     -2.629474   -0.995555    0.567516
C     -3.979858   -0.357218    0.349939
C      2.473393   -0.039735   -0.831721
C      1.715538    0.431373    0.389176
C     -1.807347   -0.341253   -0.533460
C      3.908119   -0.203654   -0.607088
C     -3.584124    1.036687   -0.029046
C     -0.393772   -0.486850   -0.153659
N      4.451066   -1.356810   -0.775927
N      4.731203    0.884543   -0.203189
N     -4.407649    2.031901    0.056365
N      0.323278    0.545332    0.015870
N     -2.238637    1.050600   -0.464594
O      0.139155   -1.739120    0.014702
Cl     0.690276    0.000000    0.000000
Cl     0.682998    0.000000    0.000000
H     -2.623303   -2.077753    0.434304
H     -2.187054   -0.662601    1.524676
H     -4.524704   -0.382416    1.296280
H     -4.488211   -0.863512   -0.481414
H      2.284340    0.703619   -1.637072
H      2.009466   -0.988999   -1.163366
H      2.040692    1.455679    0.692336
H      1.787503   -0.242543    1.249790
H     -2.039294   -0.783746   -1.522924
H      3.881667   -2.158904   -1.066818
H      4.430368    1.874130   -0.317118
H      5.659383    0.720271    0.218482
H     -4.106193    2.994997   -0.214511
H     -1.687026    1.907889   -0.686311
H      0.861475   -1.956350    0.703509
H     -0.690276    0.000000    0.000000
H     -0.682998    0.000000    0.000000
