137

C     -3.845524    1.010840    3.907029
C      0.384804   -1.822703   -0.121654
C      3.044826   -0.792856    3.418953
C      2.257493   -3.107278    1.436413
C      1.127153    0.698023    0.600802
C     -1.984556   -2.068387    1.518629
C      0.955136   -2.683356    2.080625
C      3.235180   -1.974342    1.278071
C     -0.318104    1.088318    0.546406
C     -3.277706   -1.554485    2.080545
C     -1.720801    1.170982    2.582230
C      7.303791   -1.781579    1.448328
C     -6.536267   -3.820608   -0.783271
C      3.840167    4.545094   -2.489637
C     -8.164114    3.115690    1.621775
C     -2.607217    0.263781    0.630803
C     -3.094649    0.739714    2.859051
C      6.897276   -2.596966    0.229727
C     -6.818671   -2.398146   -1.218035
C      4.641304    3.815230   -1.404829
C     -6.634923    3.099046    1.682453
C      1.375476   -0.324731    1.656949
C     -0.918943   -1.028709    1.798079
C      8.086833   -3.259977   -0.409946
C     -7.625840   -2.312309   -2.471066
C      6.008415    3.568333   -2.000853
C     -5.995670    3.783127    0.539530
C      8.398400   -2.645971   -1.749979
C     -6.928022   -1.576214   -3.593652
C      6.768224    2.500440   -1.288468
C     -5.641762    2.941710   -0.643709
C      8.146762   -1.162429   -1.687068
C     -6.221362   -0.342892   -3.132520
C      5.854390    1.268391   -1.194108
C     -5.782668    1.479450   -0.306466
C      6.718992   -0.877640   -1.322352
C     -6.054388   -0.330405   -1.644830
C      4.669654    1.749631   -0.352973
C     -5.223730    1.350601    1.115063
C      3.665109    0.394679    1.402520
C      0.463777   -1.484666    1.326992
C      2.789522   -0.690191    1.908329
C     -1.261587    0.337611    1.372258
C     -3.557670   -0.104734    1.715720
O      8.104341   -2.639112    2.237585
O     -7.709733   -4.570213   -0.748842
O      3.786924    3.669642   -3.581173
O     -8.707287    2.707764    2.839472
O      7.883930   -4.627534   -0.559566
O     -8.908431   -1.783285   -2.238665
O      6.721493    4.774663   -1.859544
O     -4.900403    4.542032    0.993537
O      9.774330   -2.853191   -1.984863
O     -6.126026   -2.463270   -4.292068
O      7.936349    2.240890   -1.959410
O     -6.283514    3.310455   -1.802197
O      8.398702   -0.651208   -2.958566
O     -6.946951    0.804099   -3.493067
O      4.333813    1.119969    2.204542
O      6.105977   -1.913362   -0.655828
O     -5.660647   -1.631815   -1.255938
O      3.968808    2.657852   -1.104466
O     -6.218945    1.816680    1.958963
O      6.595065    0.293770   -0.567300
O     -5.155643    0.625748   -1.180959
O      3.826591    0.705552    0.054574
O     -4.889537    0.066309    1.441138
H     -3.430690    1.631242    4.690758
H     -4.857996    0.652635    4.041318
H     -0.389559   -1.239227   -0.686453
H      1.315856   -1.712422   -0.692803
H      0.129492   -2.922427   -0.182981
H      3.946423   -0.208350    3.683554
H      3.269752   -1.844441    3.682879
H      2.140474   -0.414876    3.946006
H      2.649289   -3.966255    1.989791
H      2.002482   -3.474515    0.407813
H      1.472558    0.291343   -0.370920
H      1.804576    1.578273    0.797388
H     -2.024660   -2.403435    0.486519
H     -1.736078   -2.986301    2.130748
H      0.233870   -3.519548    1.871698
H      1.025792   -2.507160    3.156630
H      4.173522   -2.296358    1.792432
H      3.520623   -1.788737    0.223310
H     -0.355720    2.175474    0.863823
H     -0.603964    1.139588   -0.534830
H     -4.125498   -2.152502    1.732737
H     -3.194734   -1.643269    3.196937
H     -1.104607    0.928391    3.473984
H     -1.656315    2.257191    2.353020
H      6.427377   -1.543970    2.083466
H      7.808011   -0.847647    1.198877
H     -6.106899   -3.789785    0.225016
H     -5.873229   -4.322256   -1.527109
H      4.369167    5.460553   -2.813973
H      2.804548    4.712599   -2.158551
H     -8.532931    4.164615    1.463737
H     -8.546106    2.525811    0.773292
H     -2.796544    1.188870    0.094079
H     -2.610528   -0.551164   -0.117782
H      6.254106   -3.427916    0.645788
H     -7.445088   -1.950592   -0.391399
H      4.778109    4.492283   -0.543263
H     -6.395090    3.700505    2.611611
H      0.993505    0.140553    2.617837
H     -0.813092   -1.034478    2.927202
H      8.934096   -3.147736    0.298148
H     -7.793164   -3.358186   -2.826356
H      5.974968    3.336756   -3.076448
H     -6.742182    4.545141    0.163407
H      7.809853   -3.110265   -2.549753
H     -7.743770   -1.266192   -4.306330
H      6.971099    2.841858   -0.249016
H     -4.537006    3.096987   -0.830942
H      8.869647   -0.675591   -0.998767
H     -5.257729   -0.270398   -3.679488
H      5.461446    1.012192   -2.182521
H     -6.843825    1.167079   -0.216831
H      6.156805   -0.693386   -2.261033
H     -7.074726   -0.173940   -1.197079
H      5.144857    2.264493    0.521276
H     -4.313695    1.981501    1.146231
H      7.502852   -3.236214    2.786183
H     -8.334260   -4.206572   -0.089197
H      4.016549    4.133662   -4.432547
H     -8.116147    2.925360    3.600080
H      8.729601   -5.142282   -0.474681
H     -9.505651   -2.458748   -1.828765
H      7.092983    4.868760   -0.949329
H     -5.131823    5.500994    1.065980
H     10.148012   -2.127182   -2.537568
H     -6.726554   -3.190933   -4.610881
H      8.682343    2.697930   -1.484407
H     -5.690644    3.214440   -2.604698
H      9.280442   -0.174231   -2.994409
H     -7.832300    0.770853   -3.012078
