61

C      2.246136   -2.645389   -0.003120
C     -2.843682   -0.490086    1.777476
C     -6.634115    1.427299   -1.283128
C     -6.998928    0.985557    1.108822
C      9.060470    0.721059    0.057836
C     -0.447666   -1.770328    1.396681
C      0.905763   -1.123020    1.581997
C     -1.188734   -1.279718    0.251985
C      2.257545   -0.219051   -0.175610
C     -3.083391   -0.172055   -0.841490
C      3.174712   -0.217358   -1.322615
C      5.437678    2.673447   -0.718596
C      6.624794    2.016646   -0.464621
C     -4.424675   -0.768113   -1.072996
C      1.823946   -1.308471    0.437913
C     -2.381854   -0.640117    0.386172
C      4.404631    0.554169   -1.016872
C      4.316026    1.936825   -0.997532
C      6.713872    0.651114   -0.483580
C     -5.516051   -0.473044   -0.130567
C      5.578851   -0.094312   -0.766024
C     -5.946572    0.946143   -0.012308
O      3.098282    2.546753   -1.259964
O     -6.658715   -1.215231   -0.523458
O      5.705591   -1.472155   -0.778325
O     -4.988257    1.856536    0.317584
O      7.891782   -0.006336   -0.231750
H      1.589905   -3.437349    0.427956
H      3.247386   -2.845643    0.462277
H      2.249321   -2.782328   -1.093125
H     -3.569208    0.333494    1.866113
H     -1.991362   -0.191077    2.452584
H     -3.255138   -1.416356    2.217726
H     -5.853580    1.450816   -2.072135
H     -6.989054    2.450676   -1.111870
H     -7.475867    0.786366   -1.556936
H     -7.813175    1.698687    0.860192
H     -6.491715    1.240923    2.052132
H     -7.471204   -0.012405    1.220244
H      9.918635    0.005316    0.020600
H      9.239303    1.555207   -0.626697
H      8.989621    1.063581    1.127312
H     -0.945815   -1.816001    2.361632
H     -0.196052   -2.867190    1.177287
H      1.374691   -1.664478    2.455264
H      0.852963   -0.077904    1.872830
H     -0.800138   -1.414167   -0.771938
H      1.927326    0.773383    0.172504
H     -3.145381    0.945629   -0.776455
H     -2.449370   -0.454668   -1.727224
H      2.651128    0.346906   -2.152153
H      3.366163   -1.228429   -1.700774
H      5.391792    3.751580   -0.698078
H      7.522730    2.593504   -0.241512
H     -4.747759   -0.421968   -2.096438
H     -4.312656   -1.891578   -1.117528
H     -5.313568   -0.851992    0.899899
H      2.979349    3.539988   -1.258962
H     -6.545154   -2.179323   -0.293301
H      4.999805   -2.140007   -0.966893
H     -5.061358    2.736040   -0.128093
