51

C     -1.195211    1.914554   -0.550978
C     -0.978914    3.210134   -0.957706
C     -0.501371    1.138514   -2.639225
C     -3.577011   -4.267592    1.352668
C     -4.183736   -2.267912    0.260560
C      2.937090    0.117923    1.984741
C     -0.963839    0.835880   -1.377589
C     -4.564506   -3.465368    0.817941
C     -0.506120    3.484018   -2.253070
C     -0.274633    2.420612   -3.077734
C     -2.254548   -3.886414    1.331194
C      3.664770    1.376721    1.560708
C     -2.863403   -1.880401    0.235529
C     -1.872923   -2.693861    0.776345
C      2.834964    1.973770    0.423743
C     -0.495031   -2.224825    0.718076
C      2.691444    0.922232   -0.630370
C     -1.176514   -0.569252   -0.997650
C     -0.044188   -1.185102   -0.251795
C      2.106869   -0.359194   -0.126188
O     -5.900112   -3.874239    0.851742
O     -0.302484    4.820208   -2.617402
O      0.187144    2.618695   -4.354058
O     -1.257494   -4.690781    1.868314
O      3.787096    2.230948    2.628672
O      1.645714    2.465462    0.913516
O      0.325159   -2.730969    1.525985
O      3.987084    0.631712   -1.098155
O      2.914352   -0.798648    0.948715
O     -2.435114   -0.686691   -0.313780
O      0.822563   -0.278532    0.347889
H     -1.562243    1.716856    0.456671
H     -1.151251    4.069119   -0.333021
H     -0.302299    0.325615   -3.332304
H     -3.835724   -5.209415    1.796360
H     -4.953694   -1.638364   -0.158510
H      3.470351   -0.322246    2.825867
H      1.922454    0.416534    2.315127
H      4.656739    1.147070    1.150522
H      3.441558    2.800838   -0.005224
H      2.150696    1.348929   -1.489821
H     -1.347679   -1.147118   -1.955040
H      0.585766   -1.754407   -0.997072
H      2.233172   -1.135307   -0.916350
H     -6.345586   -4.407890    0.138239
H      0.028532    5.046783   -3.518725
H      0.370658    3.526810   -4.729353
H     -1.516496   -5.578798    2.284556
H      3.606885    3.182669    2.393593
H      1.616902    3.447281    0.797798
H      4.374161   -0.136561   -0.614102
