12

C      1.840313   -0.371476   -0.024262
C     -1.419658   -0.415083    0.294582
C      0.772499    0.123049   -0.642814
C     -0.348016    0.666859    0.168952
Cl    -1.045943    2.053850   -0.693409
H      1.902137   -0.382199    1.062520
H      2.675498   -0.776261   -0.596414
H     -2.442181    0.051550    0.244061
H     -1.335008   -0.880200    1.279773
H     -1.353815   -1.135906   -0.549570
H      0.738727    0.120639   -1.721496
H      0.015449    0.945179    1.178077
