61

C     -1.266188    0.591639   -1.166499
C      3.135615   -0.113734    1.479042
C      7.333653    1.072673   -1.316605
C      7.572276    0.630049    1.054156
C     -9.720986   -1.169385    1.420995
C      0.601215   -0.935718    0.931028
C     -0.597677   -0.108125    1.198514
C      1.469436   -0.586719   -0.167321
C     -2.836201   -0.449967    0.351449
C      3.595237    0.169931   -1.118199
C     -3.932721   -0.377450   -0.620213
C     -6.638813    1.794793    0.855998
C     -7.626133    0.859996    1.039124
C      4.810027   -0.688314   -1.233748
C     -1.607104   -0.010740    0.127311
C      2.753839   -0.169418    0.061194
C     -5.219424    0.099033   -0.019502
C     -5.419437    1.403637    0.318947
C     -7.457686   -0.461389    0.710053
C      5.849813   -0.581714   -0.192274
C     -6.251123   -0.836515    0.180545
C      6.523505    0.745010   -0.059637
O     -4.446539    2.370634    0.151107
O      6.879026   -1.505739   -0.523824
O     -5.994188   -2.162012   -0.182774
O      5.748152    1.824623    0.220117
O     -8.446872   -1.437462    0.886305
H     -1.972585    1.296793   -1.599466
H     -1.034933   -0.247529   -1.886345
H     -0.303465    1.176908   -1.059287
H      2.293646    0.361797    2.093457
H      3.965708    0.591377    1.651545
H      3.359313   -1.119167    1.908026
H      7.710385    2.118452   -1.226948
H      6.689470    1.005085   -2.199827
H      8.231712    0.422744   -1.373538
H      8.121148   -0.329552    0.887536
H      7.003933    0.530025    1.988993
H      8.254906    1.486419    1.056932
H    -10.430285   -0.793969    0.641656
H    -10.112595   -2.110995    1.877390
H     -9.594499   -0.436735    2.246460
H      0.175240   -1.978182    0.663159
H      1.086423   -1.153491    1.907636
H     -1.093759   -0.561733    2.103211
H     -0.340976    0.925734    1.550832
H      1.174744   -0.645363   -1.209161
H     -3.058695   -0.903550    1.336082
H      3.862486    1.247311   -1.007424
H      3.021443    0.045186   -2.066086
H     -3.718924    0.319979   -1.465104
H     -4.140190   -1.385008   -1.093407
H     -6.773817    2.844999    1.117983
H     -8.584561    1.144603    1.456369
H      4.449169   -1.766890   -1.218185
H      5.280298   -0.609029   -2.252524
H      5.469506   -0.958913    0.789818
H     -3.552734    2.144800   -0.214219
H      6.479357   -2.390128   -0.746280
H     -6.695077   -2.874158   -0.062537
H      5.967507    2.634564   -0.268528
