34

C     -2.974505   -0.071595   -1.142120
C     -4.411267   -0.347322    0.805606
C      2.110581   -0.983420    0.416673
C      3.487759   -1.093755    0.321477
C      2.102852    1.024473   -0.787987
C     -0.710802   -0.574803    1.033673
C     -3.031481   -0.719267    0.221331
C      1.401356    0.045417   -0.117867
C      4.170473   -0.106181   -0.350999
C      3.489415    0.963514   -0.913223
C     -0.076957    0.216551   -0.034062
N     -2.086910   -0.334958    1.169020
O      5.559207   -0.202913   -0.455329
O      4.248426    1.916481   -1.573981
O     -0.285508    1.566805    0.252450
Cl     0.690493    0.000000    0.000000
H     -2.512083   -0.715825   -1.920648
H     -2.559737    0.939378   -1.151791
H     -4.034941    0.073751   -1.544944
H     -5.223482   -0.622696    0.138044
H     -4.356757    0.744666    0.986128
H     -4.489714   -0.860954    1.789728
H      1.595525   -1.748079    0.935801
H      4.026627   -1.925607    0.757344
H      1.616438    1.882051   -1.245521
H     -0.445738   -1.660434    0.913527
H     -0.256943   -0.334470    2.051484
H     -3.093388   -1.837067    0.095102
H     -0.450042   -0.059529   -1.027661
H     -2.460580   -0.117028    2.095872
H      6.061666    0.522652   -0.949164
H      3.706771    2.694318   -1.975170
H     -0.116261    1.725848    1.207209
H     -0.690493    0.000000    0.000000
