55

C     -5.653915   -1.547756    3.316376
C      0.272155   -2.646344   -1.518902
C     -6.184415   -0.491848    1.106107
C      7.348228   -1.484682    0.099131
C      6.063696   -1.014254    0.328355
C     -5.794847    0.244012   -0.000210
C     -3.151049    2.910344   -2.647319
C     -4.001367    2.098452   -3.372897
C     -3.994386   -0.262826    1.944375
C      4.184071    2.205446    0.675563
C      8.181348    0.740849   -0.037777
C     -1.371112   -1.094093   -0.441992
C      3.402515    0.165323    0.804160
C      0.976594    0.676642    1.235291
C     -5.265452   -0.751204    2.099829
C      0.044588   -1.631731   -0.417649
C      4.556834    0.872577    0.603457
C      8.403326   -0.619975   -0.083336
C     -3.569827    0.472147    0.859663
C      5.899896    0.351844    0.363654
C     -4.510053    0.726958   -0.138008
C      0.206951    0.560467   -0.062128
C     -2.204075    0.967608    0.745575
F      9.628748   -1.154940   -0.302413
N      6.948462    1.180951    0.182176
N     -3.255351    2.481772   -1.373650
N     -4.548449    1.250253   -2.490081
N      2.879418    2.218816    0.906199
N      2.367948    1.002312    0.990911
N     -1.172704    0.239414    0.138070
N     -4.090393    1.488091   -1.272807
O     -1.942697    2.104463    1.216566
O      0.762987   -0.472558   -0.787407
H     -5.681822   -2.618162    3.111184
H     -4.921123   -1.351133    4.127495
H     -6.632167   -1.163180    3.684390
H      1.057661   -3.345206   -1.149040
H     -0.656604   -3.185792   -1.794971
H      0.668384   -2.176472   -2.439333
H     -7.192151   -0.876135    1.224094
H      7.513106   -2.542988    0.065074
H      5.228609   -1.694331    0.472792
H     -6.514326    0.446745   -0.777632
H     -2.548814    3.705284   -3.044365
H     -4.181779    2.146186   -4.438075
H     -3.271764   -0.475580    2.741683
H      4.860057    3.042689    0.560008
H      9.043600    1.375866   -0.187222
H     -1.680462   -1.037480   -1.498056
H     -2.055993   -1.698225    0.180608
H      3.339562   -0.929898    0.810170
H      0.573066    1.413531    1.926655
H      0.919175   -0.328041    1.740101
H      0.340549   -1.993067    0.574890
H      0.375560    1.498860   -0.620399
