60

C      2.160509    1.188114    2.522839
C     -1.815864   -1.833465    0.705494
C     -7.890469    0.921576   -0.355211
C     -5.982731    0.892032   -1.967069
C      0.013447    0.534277    0.599399
C      0.637022   -0.523768    1.393746
C     -1.318756    0.446301    0.061184
C      3.106059   -0.695214    1.377182
C     -3.534330   -0.424571   -0.577853
C      4.497676   -0.343641    1.651027
C     -4.543384   -0.611352    0.498231
C      6.212091   -1.107768   -0.023630
C      6.792733    0.287035   -1.867575
C      2.058292   -0.036404    1.750257
C     -2.153963   -0.552298    0.080062
C      5.326735   -0.155530    0.413558
C      6.945825   -0.883487   -1.167577
C      5.899568    1.267245   -1.441597
C     -5.973243   -0.535637    0.096408
C      5.171333    1.036535   -0.300150
C      7.879292   -1.901455   -1.618786
C     -6.362602    0.793689   -0.513533
O      5.757383    2.437104   -2.155370
O     -6.457388   -1.604556   -0.628339
O      4.265945    1.959324    0.186167
O      8.016066   -2.967636   -0.979543
O      8.616012   -1.680215   -2.763219
O     -5.838205    1.865369    0.170381
H      2.058377    2.055494    1.801835
H      3.061615    1.376856    3.088080
H      1.227390    1.286082    3.146841
H     -1.542133   -1.828694    1.748124
H     -2.745317   -2.500586    0.671317
H     -1.128967   -2.436548    0.028933
H     -8.210540    1.546357   -1.211093
H     -8.116029    1.441685    0.591188
H     -8.325804   -0.087695   -0.347765
H     -5.495022   -0.027316   -2.345613
H     -5.316880    1.778835   -2.170072
H     -6.931189    1.094553   -2.536729
H      0.703941    0.677748   -0.316340
H      0.203892    1.521183    1.135661
H      0.699537   -1.525853    1.003276
H      0.158283   -0.498104    2.423527
H     -1.745773    1.365362   -0.468271
H      2.933699   -1.615556    0.793311
H     -3.610112   -1.125326   -1.408415
H     -3.654466    0.599837   -0.973192
H      4.680717    0.446591    2.382824
H      4.936034   -1.265758    2.150375
H     -4.414125    0.179799    1.305592
H     -4.428314   -1.562513    1.089083
H      6.318933   -2.039491    0.553175
H      7.349054    0.514400   -2.778000
H     -6.546154   -0.618540    1.093684
H      5.129559    3.147046   -1.871108
H     -5.951841   -2.429607   -0.526252
H      4.113750    2.821731   -0.277412
H      9.509325   -2.138285   -2.929104
H     -6.406491    2.074708    0.947296
