58

C     -1.494369   -2.095403   -1.399031
C     -4.910647    1.269578    2.566317
C      6.882759    1.069442    0.615986
C      5.938343    2.076883    0.465018
C     -1.999286    1.393793   -2.718280
C      0.809659   -0.913614   -0.040243
C      0.166339   -0.272905   -1.239677
C     -2.646899    1.968290   -1.717458
C     -4.064828   -1.365346    0.459639
C     -4.434095    0.549978   -0.951008
C     -3.405846    1.881682    0.650432
C     -4.809292   -0.022035    0.422549
C      6.516355   -0.234448    0.848491
C      4.591151    1.737892    0.554714
C     -2.693945   -0.880814    0.799489
C     -1.768033   -0.037277   -2.609216
C      2.248362   -0.541385   -0.070312
C      4.194436    0.438289    0.787192
C      5.161979   -0.540401    0.932680
C     -2.078811    0.054308   -0.209690
C      7.479927   -1.310780    1.010842
C     -1.338758   -0.597251   -1.305975
C     -4.059252    0.762155    1.446156
C     -3.060345    1.104054   -0.613051
N      2.818265    0.113601    0.875106
O      3.686281    2.779412    0.396972
O     -1.937265   -0.771653   -3.628660
O      3.004321   -0.918944   -1.167193
O      4.763882   -1.846402    1.166291
O      8.721075   -1.049545    0.936979
O      7.129758   -2.618014    1.243543
O     -3.003022   -0.057063    1.914100
H     -2.389258   -2.406881   -1.979955
H     -0.630979   -2.433642   -2.050552
H     -1.356033   -2.636203   -0.460495
H     -5.866925    0.682755    2.640726
H     -4.326865    1.244840    3.492975
H     -5.192163    2.337094    2.367802
H      7.956211    1.291721    0.552731
H      6.269751    3.080708    0.284866
H     -1.648851    1.958499   -3.601897
H      0.379149   -0.488268    0.906476
H      0.700514   -1.997891   -0.004334
H      0.690046   -0.586171   -2.143373
H      0.248276    0.823480   -1.121028
H     -2.833513    3.035097   -1.768228
H     -4.458242   -1.904941    1.332883
H     -4.181280   -1.880707   -0.488350
H     -4.394863   -0.273377   -1.674670
H     -5.067676    1.390831   -1.235327
H     -2.471401    2.167540    1.128446
H     -4.101567    2.709203    0.447940
H     -5.870359   -0.119545    0.570043
H     -2.003874   -1.640519    1.175296
H     -1.315290    0.628568    0.410660
H      3.989507   -0.651874   -1.257889
H      3.797236   -2.058492    1.225295
H      7.670249   -3.397901    0.865700
