69

C     -4.548908    0.572953    0.886170
C     -5.302003    1.590078    0.313902
C     -2.657249    1.961472    0.879238
C      5.232977   -0.721833    0.405085
C      3.564820   -0.200868    1.990890
C     -0.829600    2.693851   -2.095155
C      1.209134    3.397664   -1.126730
C     -3.175012   -2.509465    0.845285
C     -0.879980   -3.146949   -2.031832
C     -3.216126    0.727258    1.183213
C      4.000582   -0.125366    0.686571
C      0.044237    3.717438   -1.799208
C     -2.024383   -2.343053   -0.067424
C     -4.734934    2.789043    0.025091
C     -1.916045   -3.217839   -1.125590
C     -3.392103    2.980312    0.311127
C     -0.579815    1.381318   -1.745665
C      0.104675   -2.162995   -1.892182
C      5.996809   -1.356827    1.345487
C      4.328949   -0.842092    2.956158
C     -3.087721   -1.616761    2.053147
C      1.486147    2.100217   -0.765371
C      0.584602    1.117133   -1.082667
C      0.020933   -1.291433   -0.861398
C      0.984073   -0.247421   -0.645612
C      5.536748   -1.414065    2.626759
C      2.366107   -0.413314   -1.182813
C     -2.391837   -0.332668    1.796541
C      3.294550    0.522493   -0.410200
C     -1.045891   -1.385799    0.048687
O     -0.214071    5.021248   -2.151754
O     -5.415897    3.865790   -0.549902
O     -2.889367   -4.218128   -1.293824
O     -2.773944    4.192799    0.030921
O     -1.492152    0.346428   -2.060202
O      1.125038   -2.155836   -2.851435
O      7.223353   -1.936046    1.004895
O      3.903454   -0.927542    4.277792
O     -2.449469   -2.313559    3.111237
O      6.276742   -2.047062    3.612081
O      2.361058    0.055994   -2.519633
O      2.674898    1.757176   -0.076310
O     -1.154402   -0.501823    1.117493
H     -5.070151   -0.335343    1.077658
H     -6.363832    1.447932    0.084433
H     -1.608158    2.083667    1.112521
H      5.623175   -0.687515   -0.620260
H      2.635264    0.241120    2.259033
H     -1.763422    2.913260   -2.628228
H      1.941400    4.177724   -0.864308
H     -4.101072   -2.365928    0.256074
H     -3.204968   -3.561045    1.218097
H     -0.804916   -3.847203   -2.867990
H     -4.105708   -1.429260    2.427556
H      1.122127   -0.129668    0.484301
H      2.780280   -1.411770   -1.185171
H     -2.089033    0.070408    2.811034
H      4.082415    0.831044   -1.170609
H      0.104511    5.354288   -3.046309
H     -6.399465    3.816970   -0.793018
H     -2.827766   -4.869858   -2.064020
H     -3.289555    4.954709   -0.385083
H     -2.323232    0.639084   -2.550400
H      1.175257   -2.801553   -3.601116
H      7.540937   -1.878399    0.046070
H      4.446355   -1.386870    4.978529
H     -2.366456   -3.261638    2.842153
H      7.169557   -2.475187    3.390503
H      1.547480    0.549108   -2.737303
