69

C      2.825836    2.891183   -0.300543
C      3.205253    4.157800    0.113116
C      4.082012    1.898678    1.417780
C     -3.284868    1.456930   -0.544717
C     -4.611962    0.945682    1.304878
C      0.011268   -4.164152    1.976250
C     -1.853405   -3.069619    2.999893
C      3.157925    0.027718   -2.560863
C      0.447137   -2.421772   -3.314275
C      3.250513    1.752401    0.334204
C     -3.386916    0.863341    0.689556
C     -0.916312   -4.079463    2.988167
C      1.919284   -0.799658   -2.483768
C      4.042406    4.295929    1.204829
C      1.612835   -1.695035   -3.461322
C      4.484705    3.159237    1.862626
C      0.047826   -3.255640    0.938306
C     -0.375497   -2.248262   -2.220509
C     -4.350802    2.104150   -1.143546
C     -5.697943    1.589216    0.726548
C      3.784410   -0.027681   -1.195430
C     -1.820929   -2.142116    1.945253
C     -0.881275   -2.250990    0.945017
C     -0.058905   -1.324693   -1.212513
C     -0.953138   -1.195665   -0.105088
C     -5.594070    2.180546   -0.504799
C     -0.988731    0.099566    0.654768
C      2.858333    0.426056   -0.105862
C     -2.306727    0.159177    1.393042
C      1.109660   -0.615649   -1.387721
O     -0.909068   -5.032727    4.020823
O      4.435173    5.555071    1.636721
O      2.463743   -1.831697   -4.530083
O      5.322335    3.342968    2.951279
O      0.958935   -3.308620   -0.087248
O     -1.539430   -2.996001   -2.105924
O     -4.248621    2.701435   -2.386010
O     -6.908293    1.641450    1.392355
O      4.187569   -1.343944   -0.951650
O     -6.653739    2.835293   -1.124265
O     -0.022821   -0.062219    1.687935
O     -2.718344   -1.102354    1.875684
O      1.475350    0.297715   -0.444656
H      2.168542    2.814945   -1.159337
H      2.858054    5.046701   -0.401452
H      4.469385    1.060240    1.983461
H     -2.348921    1.421348   -1.074101
H     -4.729319    0.492906    2.272883
H      0.750123   -4.966716    1.976556
H     -2.598026   -2.972605    3.780759
H      2.898996    1.055299   -2.856747
H      3.892208   -0.435199   -3.267192
H      0.227447   -3.128248   -4.106372
H      4.707275    0.589157   -1.218456
H     -2.005960   -1.319240   -0.516431
H     -0.762042    0.977590    0.050038
H      2.976378   -0.280594    0.772907
H     -2.162440    0.760666    2.351919
H     -1.497197   -5.859980    3.835505
H      4.100276    6.368475    1.141013
H      2.261272   -2.489580   -5.272790
H      5.680480    2.539579    3.476896
H      1.644991   -4.078763   -0.061405
H     -1.779876   -3.653599   -2.807776
H     -5.026469    3.160315   -2.806722
H     -7.718004    2.087717    1.030062
H      4.298510   -1.875732   -1.772397
H     -7.573876    2.950864   -0.768604
H     -0.332520    0.320867    2.529544
