69

C     -4.425892   -1.433624   -1.887152
C     -5.337492   -1.174792   -2.908427
C     -6.107347   -1.063999   -0.279670
C      5.578930    1.149352   -1.150232
C      6.180056    0.075900    0.862833
C     -2.227396    2.943639    1.214211
C     -4.303195    1.822234    1.576499
C      3.395955   -1.286517    1.304636
C      1.117561   -0.291924   -1.519439
C     -4.774780   -1.387237   -0.569871
C      5.486092    0.048271   -0.325223
C     -3.583851    2.991061    1.457067
C      2.131553   -0.949925    0.550954
C     -6.644871   -0.857922   -2.614229
C     -7.012100   -0.807309   -1.288710
C     -1.542925    1.749081    1.082500
C     -0.146292   -0.322801   -0.919239
C      6.342834    2.275393   -0.824421
C      6.932093    1.184525    1.183779
C      4.311179   -1.997080    0.348795
C      2.244012   -0.601591   -0.793803
C     -3.610393    0.612361    1.443043
C     -2.252045    0.594889    1.200053
C     -0.284554   -0.663763    0.407749
C     -1.608506   -0.717708    1.079959
C      0.888322   -0.970863    1.106756
C      7.033428    2.289702    0.370139
C     -2.482800   -1.771780    0.410017
C      4.649703   -1.089769   -0.785734
C     -3.921654   -1.633417    0.595695
O     -4.236668    4.214904    1.583362
O     -7.541830   -0.602087   -3.657293
O     -8.337721   -0.485864   -0.996924
O     -0.165982    1.781657    0.837282
O     -1.269599   -0.002117   -1.682738
O      6.399171    3.348421   -1.688090
O      7.628794    1.203542    2.384758
O      3.595242   -3.114405   -0.135662
O      0.746872   -1.307401    2.423419
O      7.810473    3.400948    0.732456
O     -2.066443   -2.987730    1.026825
O      3.480062   -0.575138   -1.364123
O     -4.219388   -0.623670    1.543168
H     -3.394615   -1.685897   -2.107907
H     -4.963362   -1.236473   -3.932391
H     -6.445789   -1.011763    0.761203
H      5.045753    1.151884   -2.084594
H      6.137619   -0.768103    1.534804
H     -1.655044    3.878425    1.119235
H     -5.366044    1.817737    1.768137
H      3.808233   -0.414535    1.803167
H      3.114031   -2.025236    2.086132
H      1.172230   -0.015333   -2.574325
H      5.181829   -2.420070    0.867046
H     -1.403337   -1.040573    2.149232
H     -2.090511   -1.878268   -0.617532
H      5.229963   -1.690435   -1.534543
H     -4.351298   -2.575721    1.074056
H     -5.217091    4.251487    1.758902
H     -8.496023   -0.368564   -3.517960
H     -8.640750   -0.439849   -0.043464
H      0.313200    2.661803    0.758591
H     -1.236980    0.250906   -2.640322
H      6.955934    4.145441   -1.429682
H      7.593798    0.427662    3.019071
H      3.101318   -2.916462   -0.948572
H      1.443330   -1.553727    3.090581
H      8.295971    3.360864    1.617047
H     -1.980974   -2.870650    1.993177
