51

C     -2.674722   -1.140442    0.333342
C     -3.226073   -2.350574    0.692018
C     -1.503973   -2.170236   -1.415950
C     -2.290609    4.788974    0.994782
C     -3.244630    3.383496   -0.701428
C      3.372096   -1.823392   -1.466316
C     -1.800910   -1.018337   -0.727858
C     -3.233937    4.551303    0.021615
C     -2.918452   -3.484839   -0.004594
C     -2.053579   -3.400832   -1.065050
C     -1.314693    3.851434    1.278409
C      4.446752   -1.100959   -0.684629
C     -2.271870    2.410713   -0.442054
C     -1.333304    2.668108    0.539022
C      4.121884   -1.315768    0.798186
C     -0.335625    1.621116    0.773450
C      2.862604   -0.512453    1.061035
C     -1.201609    0.274311   -1.124002
C      0.007726    0.627561   -0.296372
C      1.924860   -0.626510   -0.134616
O     -4.189560    5.518054   -0.226418
O     -3.478359   -4.694473    0.364982
O     -1.731352   -4.547148   -1.783073
O     -0.344229    4.046190    2.249093
O      5.719173   -1.578579   -0.955109
O      3.901786   -2.682345    0.959768
O      0.208777    1.606371    1.912449
O      3.251533    0.810669    1.219735
O      2.183053   -1.833710   -0.781011
O     -2.213713    1.228194   -1.113484
O      0.613273   -0.499699    0.254984
H     -2.917917   -0.228916    0.888214
H     -3.895651   -2.395622    1.518473
H     -0.830606   -2.170461   -2.259520
H     -2.292893    5.709108    1.555127
H     -3.970590    3.165045   -1.472152
H      3.249718   -1.427693   -2.490884
H      3.702695   -2.896303   -1.561069
H      4.419103   -0.000327   -0.883978
H      4.960854   -1.010142    1.441723
H      2.335029   -0.859371    1.950616
H     -0.838283    0.233433   -2.196224
H      0.777804    1.128361   -0.919404
H      2.186575    0.216378   -0.806349
H     -5.073636    5.545989    0.253796
H     -4.109749   -4.817991    1.121869
H     -1.093880   -4.511304   -2.570942
H     -0.380141    4.933239    2.759624
H      6.352551   -1.422834   -0.235759
H      2.963879   -2.877643    1.221300
H      3.202818    1.080855    2.154634
