51

C      1.676385   -2.418755   -0.405873
C      1.715556   -3.518035    0.445865
C      1.580145   -0.996555    1.455345
C      2.330684    4.860615   -1.735866
C      3.648252    2.998354   -0.939389
C     -1.806051   -2.240546    0.697252
C      1.607640   -1.130528    0.081496
C      3.552726    4.306077   -1.416019
C      1.687108   -3.361927    1.813391
C      1.618539   -2.079210    2.306267
C      1.146466    4.147793   -1.599175
C     -3.297996   -2.134061    0.937276
C      2.461101    2.315274   -0.813392
C      1.237304    2.865837   -1.131564
C     -3.748856   -0.734057    0.597822
C      0.050929    2.020742   -0.933362
C     -3.149420   -0.218620   -0.681605
C      1.566783    0.043166   -0.848166
C      0.179585    0.535755   -1.087722
C     -1.771585   -0.707957   -0.947921
O      4.749739    5.005044   -1.546411
O      1.726744   -4.474249    2.675268
O      1.589338   -1.908359    3.677125
O     -0.016283    4.770119   -1.939686
O     -3.589144   -2.320298    2.304825
O     -3.471548    0.155000    1.637844
O     -1.025889    2.597185   -0.639593
O     -3.989237   -0.627221   -1.735831
O     -1.619217   -2.076469   -0.685698
O      2.464674    1.015303   -0.349011
O     -0.769421   -0.056211   -0.263676
H      1.700780   -2.584053   -1.480702
H      1.769772   -4.534383    0.062552
H      1.525729    0.019080    1.853560
H      2.293893    5.871033   -2.100508
H      4.605161    2.575327   -0.693153
H     -1.386391   -3.181300    1.071379
H     -1.331606   -1.342775    1.170245
H     -3.859127   -2.904339    0.382048
H     -4.853487   -0.764593    0.488557
H     -3.168010    0.878559   -0.684931
H      1.998021   -0.267175   -1.847678
H     -0.151943    0.309085   -2.137629
H     -1.596814   -0.613186   -2.060217
H      5.110797    5.558322   -0.770273
H      1.776869   -5.394660    2.260897
H      1.538972   -0.965660    4.036760
H     -0.903777    4.352885   -1.898471
H     -4.552694   -2.551721    2.382979
H     -4.038451   -0.031737    2.431528
H     -4.812747   -1.061916   -1.396760
