51

C     -0.520052   -1.598640    2.705357
C     -0.774825   -2.749212    3.417972
C     -2.399219   -1.968604    1.343942
C     -3.211706    3.145980   -2.425474
C     -3.669389    2.461338   -0.152812
C      4.527650   -0.705028   -1.829481
C     -1.302146   -1.182544    1.673983
C     -3.899526    3.290669   -1.243213
C     -1.883758   -3.533347    3.076511
C     -2.674091   -3.120492    2.040496
C     -2.245898    2.148204   -2.570046
C     -2.709583    1.481573   -0.321607
C      4.018261    0.649338   -1.414241
C     -2.011516    1.329314   -1.510868
C      4.260970    0.913039    0.029052
C     -1.032877    0.244941   -1.535367
C      2.954149    0.539879    0.676510
C     -1.105741    0.033626    0.878163
C     -0.260340   -0.064436   -0.312314
C      2.033352    0.359621   -0.484306
O      5.893704   -0.719197   -1.576486
O     -4.870444    4.302140   -1.107853
O     -2.185015   -4.687807    3.751016
O     -3.781569   -3.919310    1.712615
O     -1.548648    1.992265   -3.739442
O      4.581438    2.266646    0.202704
O     -0.905742   -0.379514   -2.638195
O      3.171516   -0.634636    1.392441
O     -2.390296    0.595649    0.686796
O      2.675436    0.840069   -1.588009
O      0.777044    0.895938   -0.281620
H      0.321927   -0.996812    2.964334
H     -0.167853   -3.096111    4.238253
H     -3.071087   -1.702651    0.533670
H     -3.392446    3.785751   -3.260152
H     -4.215333    2.582398    0.776830
H      4.047186   -1.525935   -1.295443
H      4.380710   -0.849605   -2.942301
H      4.626849    1.394636   -2.003733
H      5.117967    0.337065    0.432695
H      2.626867    1.308654    1.394271
H     -0.616962    0.763576    1.601690
H      0.227554   -1.039432   -0.493125
H      1.881194   -0.748176   -0.627027
H      6.071835   -1.294925   -0.801144
H     -5.841930    4.154564   -1.338628
H     -2.958225   -5.282253    3.555313
H     -4.355436   -3.593346    0.945198
H     -0.840591    1.366109   -3.994750
H      3.846552    2.812311   -0.170893
H      2.800086   -0.603280    2.316002
