56

C     -0.995348    0.553929    1.518665
C      0.782105   -2.662228    1.860574
C     -6.238686    1.590976   -3.151093
C     -5.600052    0.263705    2.216802
C      5.100106   -0.188146    2.560382
C      6.208185    2.335448   -1.260491
C     -2.666586   -0.176410   -1.945266
C     -3.861359    0.407099   -2.309598
C      2.644769   -0.282658   -1.758491
C     -3.455033   -0.274674    0.276445
C      3.270981   -0.474818    0.497570
C     -0.886958   -0.903364    1.229039
C      0.604540   -1.278450    1.271794
C     -2.444260   -0.532480   -0.616564
C      2.300099   -0.653064   -0.457336
C      3.879713    0.232949   -2.085676
C     -4.851055    0.647829   -1.375388
C     -4.659518    0.306395   -0.054249
C      4.522928    0.039813    0.209289
C     -1.174349   -1.153468   -0.234441
C      0.980694   -1.197446   -0.162109
C      4.826739    0.394679   -1.088600
O      4.183890    0.589370   -3.391610
O     -6.040840    1.240348   -1.796554
O     -5.678706    0.567807    0.839034
O      5.438106    0.183532    1.239915
O      6.097739    0.914116   -1.364806
O     -0.053393   -0.510267   -0.815415
H      0.010785    1.039116    1.668917
H     -1.636073    0.784482    2.395178
H     -1.424719    1.066706    0.636733
H      1.827351   -2.972414    1.609941
H      0.724480   -2.559717    2.962473
H      0.034352   -3.363491    1.452932
H     -5.413085    2.248636   -3.503613
H     -6.265826    0.681704   -3.769905
H     -7.181835    2.169520   -3.233761
H     -5.060291   -0.662822    2.435166
H     -6.612583    0.169214    2.660744
H     -5.133196    1.161015    2.707424
H      5.960299    0.080966    3.227496
H      4.174529    0.299672    2.903997
H      4.931444   -1.302160    2.637965
H      5.495321    2.834977   -1.972274
H      5.893043    2.687038   -0.249638
H      7.248122    2.682125   -1.405620
H     -1.893541   -0.359291   -2.701295
H     -4.051415    0.693428   -3.353313
H      1.877480   -0.424695   -2.507820
H     -3.321699   -0.536488    1.316682
H      3.066050   -0.744339    1.518592
H     -1.475897   -1.549102    1.899609
H      1.109042   -0.567360    1.951115
H     -1.140314   -2.248746   -0.454078
H      0.944104   -2.246989   -0.577493
H      5.079620    0.958495   -3.602823
