39

C      3.629110   -0.525906    0.624044
C     -3.178437    0.805913   -0.550002
C      0.422574   -0.731680    1.812181
C      0.531103    2.675437   -0.298824
C      1.389482    1.613563   -0.947672
C     -0.865210    2.086930   -0.273633
C     -1.216463   -2.117415    0.260850
C     -0.099384   -1.312358   -0.458574
C      2.734184   -1.016045   -1.521224
C      2.641713   -0.370189   -0.244807
C     -2.221806    0.125538    0.064565
C      1.553848    0.519086    0.125967
C     -0.942031    0.798972    0.449589
C     -2.469038   -1.313891    0.361290
C      0.245269   -0.109598    0.369297
O      1.952762   -0.981268   -2.479948
O     -3.402332   -1.810916   -0.570171
H      3.645082   -0.078002    1.606902
H      4.479937   -1.131019    0.359774
H     -4.093923    0.300044   -0.819074
H     -3.132477    1.854074   -0.815804
H      0.980135    0.018802    2.406240
H      0.930028   -1.703247    1.707290
H     -0.545522   -0.863236    2.285282
H      0.485076    3.591989   -0.912316
H      0.897079    2.839438    0.725674
H      0.844206    1.173422   -1.809955
H      2.396038    1.967776   -1.207729
H     -1.521488    2.837376    0.206588
H     -1.193832    2.034525   -1.348425
H     -0.848491   -2.549817    1.203566
H     -1.364602   -3.002971   -0.425885
H      0.780496   -2.016505   -0.407033
H     -0.473347   -1.118402   -1.455995
H      3.638368   -1.648671   -1.694740
H      1.798334    1.126442    1.054709
H     -1.102436    1.057404    1.547606
H     -2.970283   -1.368859    1.348389
H     -4.333723   -1.656733   -0.277988
