56

C      0.893768   -1.032761   -2.338272
C     -1.086648    1.958769   -2.906035
C      7.419077    0.341322    0.595681
C      3.254129   -3.378936    0.837379
C     -2.869642   -0.233343    3.984793
C     -6.934257    0.013888    1.701998
C      3.514815    1.396447   -0.448765
C      4.817557    1.049354   -0.100844
C     -3.303875    0.303181   -0.913985
C      2.761683   -0.773959    0.012952
C     -2.481926    0.282327    1.285132
C      0.679310    0.462799   -2.136330
C     -0.813079    0.738706   -2.062053
C      2.472638    0.491840   -0.396697
C     -2.262164    0.550619   -0.049500
C     -4.536614   -0.197589   -0.481580
C      5.097531   -0.241395    0.313830
C      4.053437   -1.139309    0.363751
C     -3.689474   -0.210602    1.724982
C      1.127051    0.932975   -0.779363
C     -0.996115    1.058907   -0.581228
C     -4.738437   -0.459777    0.852691
O     -5.576425   -0.442660   -1.361143
O      6.385715   -0.645414    0.674337
O      4.312837   -2.439219    0.776909
O     -3.936066   -0.492122    3.080570
O     -5.957756   -0.960521    1.319906
O      0.120552    0.492931    0.042947
H      0.281101   -1.616902   -1.653045
H      1.965751   -1.230993   -2.322674
H      0.538536   -1.266367   -3.368396
H     -1.464306    1.707181   -3.911135
H     -0.161567    2.571999   -3.058750
H     -1.790509    2.621203   -2.339125
H      8.393630   -0.099896    0.887936
H      7.467982    0.635149   -0.482085
H      7.173955    1.239286    1.180849
H      3.573507   -4.371576    1.168572
H      2.516813   -3.007375    1.599956
H      2.682909   -3.408126   -0.127498
H     -2.452430    0.785853    3.839268
H     -3.196051   -0.303872    5.039383
H     -2.031644   -0.943597    3.805503
H     -6.846346    0.926025    1.080641
H     -7.960862   -0.418693    1.677504
H     -6.763143    0.338325    2.764428
H      3.342943    2.411434   -0.765339
H      5.620069    1.778291   -0.150265
H     -3.241703    0.483771   -1.976061
H      1.953339   -1.492223    0.059809
H     -1.687062    0.468326    1.967455
H      1.170909    1.008206   -2.965307
H     -1.398867   -0.149537   -2.381253
H      1.077347    2.040552   -0.796143
H     -0.955786    2.153405   -0.426583
H     -5.536138   -0.286306   -2.354497
