36

C     -1.957337   -1.478983   -1.117637
C     -0.919293   -1.151133   -0.064401
C     -3.324218   -0.923282   -0.813525
C      3.521472    0.390990   -0.981428
C      2.224483    0.906339   -0.886795
C      3.142228   -0.770042    1.079635
C     -0.126106    2.449320    0.639153
C     -2.444905    2.102175    0.834604
C      3.944297   -0.441494    0.018685
C     -1.014812    0.287348    0.288697
C      1.422690    0.593601    0.150330
C      0.073932    1.117901    0.339146
C     -2.284372    0.783716    0.541206
C      1.888648   -0.264372    1.159051
C     -3.381048   -0.232227    0.509638
C      5.329636   -1.012594   -0.004477
F      1.043600   -0.572418    2.200481
F      6.054173   -0.568693   -1.075402
F      5.270185   -2.381025    0.048728
F      5.942651   -0.562540    1.172450
N     -4.672094    0.320501    0.750085
N     -1.369916    2.897890    0.875521
H     -1.616900   -0.973478   -2.067383
H     -1.989081   -2.550731   -1.326336
H      0.091268   -1.279482   -0.528752
H     -0.979038   -1.809116    0.812369
H     -3.705465   -0.240970   -1.597114
H     -4.036207   -1.793286   -0.753507
H      4.157831    0.640226   -1.806297
H      1.870000    1.574215   -1.680485
H      3.481542   -1.432398    1.873524
H      0.707360    3.152124    0.690939
H     -3.464694    2.468513    1.027932
H     -3.176858   -1.001800    1.312622
H     -5.044736    0.949339    0.035961
H     -4.658916    0.805866    1.682835
