60

C      7.337662    1.065253    1.229207
C      5.937309    1.614479    1.037625
C      5.601026    1.638119   -0.449362
C      5.691359    0.235758   -0.975607
C      4.758658   -0.713546   -0.301932
C      3.325241   -0.249115   -0.499402
C      2.360664   -1.170762    0.179746
C     -2.410014   -1.696870    0.061298
C     -2.805607   -0.494830    2.270073
C     -1.667655   -1.059865   -0.767504
C     -6.257671    1.040044   -0.548185
C     -1.338753   -0.144437    2.125422
C     -6.894424   -0.109575    0.220396
C     -3.386825   -1.247516    1.137816
C     -0.676511   -1.421753   -1.850559
C      0.943526   -0.694014   -0.056425
C     -7.271580    1.916625   -1.119988
C     -5.817743   -0.944963    0.778087
C     -0.473210   -1.307123    1.902817
C      0.651014   -0.687664   -1.548995
O     -1.101342   -0.860526   -3.090310
O     -8.195159    2.328913   -0.352580
O     -7.271304    2.315754   -2.455841
O     -6.101934   -2.005579    1.362825
O     -0.305355   -2.090953    2.901235
O      0.633822    0.583589   -2.091368
O     -4.516784   -0.572601    0.663226
O      0.111431   -1.522874    0.688800
H      7.345631   -0.042184    1.159493
H      7.668750    1.450672    2.225820
H      7.993997    1.480221    0.464424
H      5.189478    1.075834    1.630654
H      5.897512    2.677961    1.380561
H      4.637533    2.093967   -0.670277
H      6.412643    2.229185   -0.932459
H      6.744461   -0.127670   -0.797863
H      5.531512    0.265804   -2.085353
H      4.879159   -1.759261   -0.709523
H      4.988699   -0.761989    0.772095
H      3.056501   -0.158918   -1.565899
H      3.211215    0.765737   -0.045842
H      2.571509   -1.216507    1.282992
H      2.483492   -2.184809   -0.251740
H     -2.481071   -2.848002    0.146417
H     -2.883617   -1.030613    3.238928
H     -3.341520    0.462599    2.409328
H     -1.614531    0.095615   -0.889900
H     -5.599754    0.593444   -1.308307
H     -5.656811    1.593849    0.213986
H     -1.161620    0.622963    1.355459
H     -0.992121    0.342316    3.093329
H     -7.593227    0.262879    0.999266
H     -7.534234   -0.711333   -0.491685
H     -3.854093   -2.180131    1.618615
H     -0.407533   -2.407853   -2.080369
H      0.867454    0.390157    0.250765
H      1.446395   -1.277300   -2.037697
H     -1.546144   -0.006148   -2.873382
H     -8.155950    2.482206   -2.945823
H      1.036443    0.594822   -3.006528
