51

C     -6.808093    0.252366   -0.858687
C      0.524325    1.574492   -0.737484
C     -2.802302   -0.502785   -5.045292
C      1.969112    2.562103    3.747709
C      6.362654    0.844813    3.249268
C     -5.709218   -0.128495   -0.235040
C     -5.038219   -1.417933   -0.531411
C     -3.382697   -0.913075   -2.332245
C     -2.605332   -1.021358   -0.094986
C      3.222260   -1.356065    0.820097
C      2.065084    0.480172    1.795598
C      1.117356    0.272357   -1.225168
C     -3.651969   -1.111665   -0.999697
C      2.112571   -0.523836    0.854925
C      4.282245   -1.186835    1.721806
C     -2.096539   -0.633524   -2.725276
C      3.118532    0.659807    2.702791
C     -1.313247   -0.741290   -0.482929
C      1.029139   -0.733200   -0.098298
C      4.207984   -0.175966    2.650383
C     -1.042813   -0.541957   -1.820180
O      5.393551   -2.021421    1.685818
O     -1.764556   -0.422866   -4.063053
O      3.043707    1.679783    3.639819
O      5.248240   -0.005111    3.539880
O      0.265722   -0.253188   -2.258668
O     -0.271903   -0.655248    0.451109
H     -7.222517   -0.408383   -1.609290
H     -7.306561    1.188145   -0.652685
H     -0.302601    1.458886   -0.034368
H      1.298142    2.255233   -0.297974
H      0.078076    2.090688   -1.637776
H     -3.684934    0.106657   -4.698634
H     -3.174449   -1.543123   -5.139412
H     -2.446344   -0.162814   -6.028541
H      1.938096    3.004535    4.778723
H      2.061034    3.386206    3.025468
H      0.982465    2.068314    3.597196
H      6.177289    1.493311    2.382089
H      7.286733    0.253253    3.093966
H      6.539447    1.495028    4.153276
H     -5.307317    0.560112    0.523532
H     -4.938106   -2.046382    0.376104
H     -5.588591   -1.906667   -1.349288
H     -4.176526   -0.978786   -3.043478
H     -2.860248   -1.185552    0.954014
H      3.246802   -2.137894    0.079029
H      1.190119    1.112971    1.802909
H      2.140231    0.422595   -1.584650
H      1.140534   -1.750436   -0.569883
H      5.453632   -2.755978    1.015317
