39

C     -5.343468   -2.068322    0.380640
C      0.159989   -1.536916   -1.382053
C      0.558614   -0.057002   -1.272742
C     -1.323603   -1.609801   -1.557907
C      3.932305    2.864593    0.857774
C      4.377230    0.542140    0.447881
C      2.604018    2.518044    0.968600
C      3.065469    0.187588    0.555501
C      6.204840    2.112946    0.446201
C      0.116301    1.379801    2.171047
C     -1.898037    0.543339    1.394944
C     -4.126384   -1.922292   -0.501850
C      4.831651    1.828638    0.588394
C      2.158389    1.210943    0.822998
C      0.012359    0.371847    0.025223
C      0.734789    0.979108    0.976184
C     -1.340605    0.130497    0.204887
C     -2.127032   -0.561203   -0.879549
N      7.351541    2.343889    0.336256
N     -1.196044    1.153222    2.359251
N     -3.342973   -0.986948   -0.266803
O     -3.900559   -2.811526   -1.539827
H     -5.524200   -3.167201    0.448095
H     -5.051744   -1.688345    1.378229
H     -6.183958   -1.540523   -0.077399
H      0.669251   -2.011706   -2.220641
H      0.471995   -2.020345   -0.422405
H      1.630247    0.112765   -1.409725
H      0.003217    0.450933   -2.115658
H     -1.619893   -2.642365   -1.224131
H     -1.496379   -1.591145   -2.675611
H      4.267976    3.886438    0.970030
H      5.076853   -0.272407    0.236053
H      1.858193    3.296163    1.180294
H      2.687198   -0.809507    0.461396
H      0.728697    1.868122    2.911907
H     -2.967529    0.348149    1.524221
H     -2.357405    0.259901   -1.625533
H     -3.701307   -2.422569   -2.474173
