45

C      4.797817   -1.486373    0.423032
C      3.856993   -0.562619    0.349952
C     -0.518260    3.007205   -1.342350
C     -1.832465    3.412464   -1.607345
C     -1.493732   -2.868571   -0.734696
C     -0.114084   -2.331635   -0.311917
C     -0.742990    0.083066    1.753088
C      2.916177   -0.356136    1.453707
C      0.614358   -0.357806    2.133777
C      1.134825    1.320573   -0.425991
C     -0.258429    1.827114   -0.701806
C     -2.896082    2.594446   -1.210174
C     -2.515800   -1.795192   -0.798334
C      1.154422   -0.168162   -0.204339
C     -1.340694    1.092341   -0.347240
C     -2.627523    1.400978   -0.562527
C     -2.546267   -0.769875    0.258473
C     -1.173505   -0.213488    0.376866
C     -0.132234   -0.881520   -0.515643
N      1.533749   -0.554649    1.101044
O     -4.215105    2.949165   -1.449080
O     -3.305979   -1.771868   -1.707137
O     -0.509288   -0.636377   -1.845198
O     -3.412866    0.340517   -0.033429
H      5.473349   -1.610010   -0.409867
H      4.940106   -2.139943    1.276413
H      3.795325    0.042602   -0.543482
H      0.285429    3.653064   -1.658241
H     -2.029500    4.349439   -2.114755
H     -1.373475   -3.393896   -1.704916
H     -1.810636   -3.635966   -0.001250
H      0.667456   -2.852029   -0.898186
H      0.057724   -2.597841    0.740970
H     -1.500531   -0.245589    2.527812
H     -0.746530    1.215860    1.891033
H      3.085181    0.662291    1.909277
H      3.143427   -1.067926    2.275034
H      0.481486   -1.343424    2.690512
H      1.050215    0.332990    2.919965
H      1.457507    1.857842    0.502516
H      1.776594    1.644278   -1.265642
H      1.906705   -0.585288   -0.936341
H     -2.826542   -1.201162    1.251791
H     -4.452843    3.812671   -1.919335
H      0.246514   -0.171564   -2.321128
