41

C      6.042764    0.306155   -0.491397
C      0.854254   -1.433176   -1.328347
C     -0.260449   -1.056394   -0.317923
C      2.050772   -1.847612   -0.487469
C     -2.920159    0.755346    1.449952
C     -2.759026    0.887427   -0.929140
C     -4.245461    0.463232    1.399760
C     -4.119194    0.583324   -0.943211
C     -0.242179    2.445982    0.925104
C      1.966013    1.610591    0.925894
C      4.932328   -0.573248    0.075821
C     -2.142103    0.974475    0.303070
C     -4.869692    0.369688    0.169741
C      0.163127    0.239188    0.244889
C     -0.737531    1.249387    0.467916
C      1.524847    0.400631    0.474945
C      2.507157   -0.723446    0.352446
C     -6.330667    0.045378    0.169700
F     -6.587624   -0.857071    1.225574
F     -7.104962    1.150250    0.399906
F     -6.640671   -0.605412   -0.980108
N      1.100491    2.607586    1.142127
N      3.741746   -0.197863   -0.024293
O      5.237334   -1.775985    0.692018
H      5.637349    0.802001   -1.386199
H      6.927456   -0.299167   -0.717478
H      6.272100    1.005026    0.336112
H      1.128253   -0.542155   -1.918437
H      0.497682   -2.261630   -1.970851
H     -1.160105   -0.980215   -0.951163
H     -0.288498   -1.843421    0.432122
H      2.898230   -2.205218   -1.132023
H      1.696487   -2.727152    0.101957
H     -2.400432    0.846401    2.426800
H     -2.212003    1.045743   -1.847514
H     -4.840215    0.278506    2.302624
H     -4.633830    0.516384   -1.901869
H     -0.941982    3.271260    1.089829
H      3.056638    1.776620    1.097554
H      2.582357   -1.140628    1.416684
H      4.619400   -2.560786    0.533882
