45

C      4.394984   -1.293409    0.342685
C      3.872559   -0.079273    0.464762
C     -1.174061   -3.044335   -0.064793
C     -2.539378   -3.197617   -0.370463
C     -0.608907    2.658551   -1.900533
C      0.477080    2.083725   -0.990526
C     -0.700924    0.869662    1.600680
C      2.927934    0.280576    1.555947
C      0.704884    1.073347    1.951781
C      0.798134   -1.501521    0.383588
C     -0.642621   -1.789398    0.115096
C     -3.361528   -2.082917   -0.494322
C     -1.955549    2.101131   -1.550372
C      1.211414   -0.112540   -0.085976
C     -1.531895   -0.764134   -0.024788
C     -2.851894   -0.802702   -0.318328
C     -2.216319    1.416608   -0.280826
C     -1.043627    0.615391    0.186664
C      0.144702    0.668475   -0.770901
N      1.694073    0.701337    1.001304
O     -4.701553   -2.239002   -0.795531
O     -2.843611    2.233910   -2.362369
O     -0.282778    0.071045   -1.962090
O     -3.340238    0.519926   -0.367663
H      4.141418   -2.071740    1.050510
H      5.081248   -1.550192   -0.452255
H      4.135370    0.693502   -0.252767
H     -0.519486   -3.898903    0.034407
H     -2.951936   -4.197040   -0.510402
H     -0.644114    3.752103   -1.774489
H     -0.329894    2.449810   -2.951608
H      0.490317    2.709706   -0.095350
H      1.454008    2.228759   -1.502722
H     -1.332126    1.743301    1.947103
H     -1.111834    0.010139    2.211479
H      2.851887   -0.599233    2.230013
H      3.386841    1.145088    2.092348
H      0.877726    2.161333    2.207075
H      0.961166    0.541793    2.916416
H      1.374814   -2.276808   -0.160294
H      0.982789   -1.654433    1.461220
H      2.055597   -0.234833   -0.795821
H     -2.508259    2.145075    0.524783
H     -5.355564   -1.500790   -0.901588
H      0.529147    0.016529   -2.541083
