46

C     -2.274171   -2.178820    0.834800
C     -4.092940   -1.790420   -0.617754
C      5.449138   -1.489123    0.813858
C     -1.938895    2.738676    0.327646
C     -0.534685    3.272758    0.460106
C      2.429954   -1.333833   -2.137639
C     -2.082592    1.315236    0.842779
C      1.319707   -0.549776   -1.921581
C      3.449764   -1.417070   -1.191719
C      0.415875    2.106975    0.500437
C      2.180241    0.091661    0.154931
C     -2.068395   -0.478013   -0.785088
C      1.150404    0.188752   -0.772690
C     -1.184601    0.344939    0.109210
C      3.286080   -0.676444   -0.037406
C     -0.043788    1.034172   -0.525489
N     -3.023527   -1.179792    0.079753
O     -0.472450    1.671686   -1.692028
O      4.276775   -0.729203    0.926313
Cl     0.689262    0.000000    0.000000
H     -1.329483   -2.447845    0.289412
H     -1.991407   -1.742529    1.811298
H     -2.868429   -3.075990    1.008766
H     -4.497638   -1.178558   -1.453770
H     -3.855673   -2.817882   -1.001467
H     -4.952645   -1.975573    0.105204
H      5.903758   -1.616022    1.813756
H      5.177405   -2.534201    0.495719
H      6.136694   -1.022245    0.087372
H     -2.336556    2.860399   -0.697905
H     -2.582772    3.382224    0.959019
H     -0.309457    3.973484   -0.342632
H     -0.411015    3.842137    1.428420
H      2.577908   -1.917271   -3.051249
H     -1.882308    1.362959    1.932369
H     -3.160837    1.068868    0.719594
H      0.573751   -0.546755   -2.718167
H      4.339131   -2.016764   -1.340074
H      1.426909    2.398803    0.188367
H      0.363977    1.632680    1.476839
H      2.082635    0.657862    1.074237
H     -1.517447   -1.205278   -1.377278
H     -2.686824    0.143845   -1.463315
H     -0.772971   -0.351028    0.900399
H      0.331399    2.182319   -2.025114
H     -0.689262    0.000000    0.000000
