158

C     -2.723820    2.136327    0.176980
C      1.901014   -2.086471   -1.506021
C      4.546254    1.180626   -3.042900
C      3.726519   -1.618319   -3.597977
C      2.675585    0.082359   -0.001080
C     -0.459497   -0.643553   -2.860303
C      2.404460   -0.897610   -3.564300
C      4.706874   -1.172412   -2.553026
C      1.262493    0.231131    0.392974
C     -1.736843    0.095557   -2.541482
C     -0.450042    1.616272   -0.603653
C     -9.913734    5.163425   -0.856029
C     10.120251    0.904418   -1.117166
C     -3.711948   -4.246593    1.780249
C      5.765513    1.838665    4.633129
C     -6.827677   -1.018266   -3.740232
C     -0.928084   -0.714940   -0.344673
C     -1.910713    1.330357   -0.420315
C     -9.461597    4.039410    0.033186
C     10.391983   -0.602648   -1.081283
C     -4.985419   -3.443772    1.744765
C      6.466702    1.163158    3.479017
C     -5.715412   -0.055554   -3.278546
C      2.920410    0.228809   -1.473208
C      0.628913   -0.032895   -2.045658
C    -10.572148    3.389415    0.816008
C     11.582188   -0.930342   -0.254033
C     -5.799145   -3.569707    3.007913
C      7.449833    0.126955    3.919287
C     -6.309109    1.119197   -2.630903
C    -10.014192    2.190261    1.530684
C     11.290153   -1.583807    1.067638
C     -6.182886   -2.206352    3.553064
C      7.252651   -1.188319    3.203079
C     -8.520823    2.011665    1.355234
C     10.059912   -2.465399    1.000385
C     -6.670820   -1.291801    2.438841
C     -6.416830    1.054430   -1.128702
C      7.190096   -0.887974    1.705183
C     -5.617657   -0.089915   -0.623558
C     -8.028055    2.261948   -0.019649
C      8.913679   -1.669413    0.390171
C     -5.788641   -1.350293    1.228378
C      6.231793    0.204760    1.400102
C     -4.337144   -0.082409   -1.454235
C      5.240478    0.498575   -0.828879
C      1.968054   -0.749847   -2.138590
C      4.324752    0.145198   -1.925732
C      0.218401    0.231976   -0.629919
C     -2.094454    0.030668   -1.050023
O     -8.816796    5.650616   -1.549810
O      9.575813    1.389894    0.042968
O     -2.897450   -3.902715    2.854100
O      6.779035    2.288421    5.506261
O     -7.842824   -0.352506   -4.386725
O    -11.092071    4.287050    1.749527
O     12.477509   -1.738558   -0.945267
O     -6.933393   -4.346246    2.732299
O      8.734414    0.618937    3.763290
O     -5.616052    2.271518   -3.046948
O    -10.599316    1.020184    1.000984
O     11.142837   -0.640396    2.092219
O     -5.101719   -1.670461    4.244593
O      6.052203   -1.756122    3.559704
O     -7.890201    2.873648    2.273433
O     10.339387   -3.533898    0.174028
O     -7.958809   -1.700404    2.080027
O      6.014493    1.492713   -0.949904
O     -8.917024    3.037561   -0.776493
O      9.257838   -1.321368   -0.876405
O     -4.643865   -2.092063    1.627911
O      5.562623    0.674687    2.536585
O     -4.766040   -0.798465   -2.639926
O     -7.750825    1.090096   -0.710270
O      8.485482   -0.668010    1.222766
O     -5.358536   -0.142571    0.732471
O      5.350145   -0.173028    0.382034
O     -3.258238   -0.650404   -0.883314
H     -2.412939    3.106172    0.604619
H     -3.767197    1.904345    0.291100
H      1.775255   -2.142046   -0.430810
H      1.019554   -2.621012   -1.947707
H      2.756670   -2.746354   -1.747040
H      5.435453    1.811700   -2.840114
H      4.697370    0.707594   -4.027933
H      3.656563    1.838283   -3.136295
H      4.125421   -1.421248   -4.641740
H      3.582472   -2.717701   -3.592863
H      3.137799   -0.871320    0.375988
H      3.316133    0.889360    0.475633
H     -0.246471   -0.394621   -3.942170
H     -0.560074   -1.722802   -2.827875
H      2.401700    0.043212   -4.124272
H      1.666791   -1.606670   -4.043984
H      4.991301   -1.943560   -1.815413
H      5.676841   -0.961920   -3.098355
H      1.024106   -0.574747    1.153231
H      1.192902    1.157163    1.049558
H     -2.542343   -0.396622   -3.113337
H     -1.655535    1.146825   -2.862810
H     -0.030972    2.262632    0.165439
H     -0.353176    2.126829   -1.581193
H    -10.647942    4.761866   -1.593656
H    -10.388032    5.991488   -0.290315
H      9.445292    1.160301   -1.969657
H     11.064711    1.453670   -1.325069
H     -3.092948   -4.079418    0.868574
H     -3.959961   -5.343296    1.870064
H      5.142220    1.146240    5.228948
H      5.216932    2.719591    4.270451
H     -6.351802   -1.684947   -4.526867
H     -7.139904   -1.700437   -2.951228
H     -1.166339   -0.777975    0.739096
H     -0.877526   -1.679681   -0.832995
H     -8.686330    4.450046    0.731009
H     10.699798   -0.824918   -2.157651
H     -5.567000   -3.734054    0.845275
H      7.023522    1.968277    2.956116
H     -5.239207    0.330826   -4.251798
H      2.577476    1.291233   -1.695448
H      0.844257    0.972655   -2.520754
H    -11.348039    3.076772    0.076619
H     12.137655    0.020289   -0.042583
H     -5.243123   -4.095215    3.810372
H      7.306362   -0.013290    5.021901
H     -7.356054    1.287344   -3.075717
H    -10.295556    2.245977    2.595838
H     12.153979   -2.219840    1.339685
H     -7.019214   -2.336510    4.260083
H      8.134847   -1.818732    3.375537
H     -8.302990    0.965835    1.649821
H      9.847741   -2.836013    2.007042
H     -6.649814   -0.268089    2.848710
H     -5.887171    1.988242   -0.766989
H      6.824063   -1.831065    1.252235
H     -6.160215   -1.036891   -0.942903
H     -7.077016    2.856649    0.029489
H      8.072082   -2.416215    0.312367
H     -6.285963   -1.955934    0.422415
H      6.834586    1.102410    1.067084
H     -4.162951    0.933580   -1.847274
H     -8.121637    6.022475   -0.968527
H      9.893758    2.335078    0.174909
H     -2.641474   -4.723258    3.381241
H      6.654097    3.257743    5.713073
H     -7.453244    0.308651   -4.992003
H    -12.019584    4.088137    2.000139
H     12.841190   -1.276954   -1.751848
H     -6.657736   -4.980590    2.025433
H      8.777965    1.479403    3.274851
H     -5.780100    3.016545   -2.426183
H    -10.359344    0.952053    0.048781
H     12.051386   -0.457541    2.468908
H     -4.492433   -2.351880    4.609062
H      5.944780   -1.892598    4.527201
H     -8.356554    2.770964    3.145164
H     10.371805   -3.237844   -0.785513
H     -8.351816   -2.139707    2.873618
