158

C     -2.899441   -1.837757   -0.999518
C      2.711197   -0.546781   -2.987946
C      3.545549   -2.884313    0.994649
C      3.265856   -3.400236   -2.702334
C      2.630953   -0.112728   -0.096965
C      0.071318   -0.141448   -3.175346
C      1.913120   -2.791281   -2.641184
C      3.822277   -3.525060   -1.326036
C      1.250751    0.382587    0.174394
C     -1.404079    0.163836   -3.095171
C     -0.901784   -0.883116    0.142290
C     -6.517940    3.732396    4.461339
C      9.692670    4.089220    0.541986
C     -6.347380   -3.875006   -4.153727
C      8.185379   -4.614204    0.434856
C     -3.404707    4.244833   -2.966738
C     -0.718890    1.081966   -0.996396
C     -2.013029   -0.869358   -0.889976
C     -7.166946    3.716768    3.087551
C      8.796197    3.331741    1.494731
C     -6.676439   -3.089313   -2.905288
C      8.384523   -3.267853    1.143761
C     -4.522145    3.245771   -2.740200
C      2.495492   -1.503431   -0.660867
C      0.499853   -0.871755   -1.918084
C     -8.406540    2.893043    3.051515
C      8.869332    3.923275    2.886316
C     -8.131191   -3.294683   -2.593118
C      7.555478   -3.264982    2.360925
C     -4.868564    3.288133   -1.298507
C     -8.193714    1.418831    2.948367
C      9.396338    2.913027    3.873249
C     -8.611867   -2.330874   -1.527176
C      7.092723   -1.938310    2.853325
C     -6.850636    1.159884    2.267788
C      8.763080    1.549651    3.746063
C     -8.199248   -0.939579   -1.974252
C     -5.722157    2.120765   -0.820459
C      7.330410   -0.816063    1.897172
C     -5.319378    0.867823   -1.486824
C     -6.572271    2.319662    1.337889
C      8.351220    1.249534    2.317386
C     -6.698800   -0.933186   -2.080396
C      7.235029   -1.379311    0.479594
C     -4.054309    0.999681   -2.318654
C      4.967439   -1.567139   -0.396761
C      1.921843   -1.389695   -2.018213
C      3.703461   -2.332760   -0.448859
C      0.164067   -0.146211   -0.685624
C     -1.900013    0.348837   -1.679938
O     -7.436294    4.013074    5.459952
O      9.328495    5.441203    0.475603
O     -4.992061   -3.762001   -4.501384
O      8.337359   -5.663161    1.342849
O     -3.731636    5.487554   -2.432844
O     -9.259770    3.368157    2.056079
O      7.677202    4.513025    3.268394
O     -8.353005   -4.582112   -2.130040
O      8.330915   -3.843016    3.394988
O     -5.660339    4.443217   -1.092617
O     -8.291426    0.764087    4.170672
O     10.788509    2.833540    3.634720
O     -9.994413   -2.449861   -1.428572
O      5.741467   -2.066189    3.187478
O     -6.929569   -0.053113    1.632272
O      7.659648    1.514557    4.597937
O     -8.599689   -0.058416   -0.964055
O      5.223975   -0.508846   -1.004836
O     -6.240272    3.437181    2.116360
O      9.218258    2.001043    1.507531
O     -6.378330   -1.760755   -3.193491
O      8.209393   -2.288207    0.217320
O     -4.231612    2.015655   -3.252520
O     -5.454065    2.057100    0.563803
O      8.450666   -0.084638    2.126377
O     -6.263011    0.319502   -2.341971
O      5.991368   -2.058338    0.403438
O     -2.941143    1.253487   -1.590696
H     -3.711546   -1.910169   -1.693441
H     -2.825977   -2.699735   -0.303883
H      2.164304   -0.603850   -3.979139
H      2.816090    0.505593   -2.708384
H      3.710458   -0.950770   -3.219872
H      4.486698   -3.478464    1.192979
H      2.730525   -3.631685    0.923688
H      3.375596   -2.072658    1.699515
H      3.945455   -2.951008   -3.450042
H      3.115203   -4.454640   -3.074769
H      3.151708    0.604335   -0.727126
H      3.200257   -0.210205    0.875987
H      0.173281   -0.827994   -4.061547
H      0.702672    0.736487   -3.395257
H      1.356611   -2.783328   -3.604195
H      1.300665   -3.404343   -1.930587
H      3.440874   -4.465491   -0.857068
H      4.929144   -3.724042   -1.456355
H      1.010023    0.094934    1.241187
H      1.304782    1.506872    0.223853
H     -2.031881   -0.523378   -3.679872
H     -1.524283    1.174688   -3.588317
H     -0.604206   -1.896141    0.389515
H     -1.148951   -0.239838    1.002279
H     -6.014755    2.773936    4.700048
H     -5.717586    4.499603    4.518562
H     10.747611    4.080003    0.887782
H      9.674255    3.692148   -0.472909
H     -6.904691   -3.403608   -5.013775
H     -6.645158   -4.929441   -4.086557
H      7.151610   -4.601783    0.040972
H      8.857751   -4.717525   -0.435355
H     -3.320565    4.370613   -4.071231
H     -2.445854    3.881220   -2.553776
H     -1.030046    1.489060   -0.022385
H     -0.236807    1.776250   -1.671642
H     -7.500255    4.785794    2.924904
H      7.753907    3.409981    1.133150
H     -6.055768   -3.471617   -2.068991
H      9.477825   -3.259565    1.419236
H     -5.402548    3.658546   -3.309215
H      1.676818   -1.977878   -0.032278
H     -0.145400   -1.806545   -1.939360
H     -8.954937    3.074675    4.015245
H      9.639880    4.739151    2.850473
H     -8.752205   -3.079070   -3.510766
H      6.704550   -4.001891    2.242365
H     -3.972516    3.435900   -0.633670
H     -9.001917    1.003207    2.286352
H      9.276072    3.354643    4.885265
H     -8.089872   -2.529321   -0.566020
H      7.571053   -1.680581    3.850620
H     -6.050061    1.054455    3.045711
H      9.533011    0.798561    4.025004
H     -8.664325   -0.674436   -2.949468
H     -6.800470    2.370584   -0.897831
H      6.462068   -0.121867    1.943071
H     -5.099948    0.082784   -0.724476
H     -7.481242    2.508950    0.736585
H      7.303104    1.648638    2.252241
H     -6.299654   -1.397613   -1.156846
H      7.257405   -0.537670   -0.238034
H     -4.001587    0.057889   -2.925770
H     -8.069296    4.721099    5.251587
H     10.026587    5.878188   -0.067371
H     -4.446846   -3.942928   -3.692429
H      8.009262   -6.475294    0.839708
H     -3.467773    6.213264   -3.080128
H     -9.842497    2.631477    1.707613
H      7.741200    5.506173    3.279558
H     -9.206595   -4.559820   -1.616895
H      9.135890   -4.277907    3.066545
H     -6.590786    4.201549   -1.325380
H     -8.521514   -0.176628    4.121684
H     11.316758    3.161560    4.388185
H    -10.337211   -2.377353   -2.371536
H      5.585984   -2.436538    4.071607
H     -6.190108   -0.675845    1.841990
H      7.943855    1.986197    5.437766
H     -9.367874    0.462131   -1.282214
