54

C      6.290867   -0.711450   -0.890727
C     -2.586626   -2.118056    2.403929
C     -1.481007   -3.312516    0.528357
C      6.498377    0.240838    0.230339
C      5.649038    1.459496    0.182582
C      4.179585    1.301343    0.315875
C      3.500471    0.475750   -0.706516
C     -4.603377   -0.254375   -0.823129
C     -3.920959   -1.287837    0.041680
C     -2.990522    1.378846   -0.012988
C      1.205995    1.444541   -0.993104
C      1.506941   -0.467962    0.394548
C     -5.015321    2.228239   -1.083629
C      2.022288    0.495588   -0.434690
C     -4.125409    1.105145   -0.599206
C     -2.088148    0.358343    0.474940
C     -2.455788   -1.069817    0.141339
C     -0.172053    1.459895   -0.735664
C      0.153875   -0.486229    0.672506
C     -0.661306    0.488859    0.094724
C     -1.760857   -1.956303    1.149652
O     -6.248276    2.163674   -0.452851
O     -0.978925    2.429439   -1.313015
O     -0.474532   -1.411209    1.492972
H      5.775179   -0.288499   -1.766773
H      7.329979   -0.978855   -1.331334
H      5.846827   -1.665801   -0.547775
H      7.589143    0.501069    0.362459
H      6.279519   -0.309591    1.207880
H      5.898448    2.034733   -0.781152
H      6.027515    2.167759    1.004216
H      4.019272    0.854499    1.356590
H      3.683909    2.308437    0.427978
H     -3.083854   -1.166322    2.684719
H     -1.908364   -2.392413    3.228457
H     -3.319571   -2.926521    2.209980
H     -2.393216   -3.594774   -0.039867
H     -0.598071   -3.159204   -0.146649
H     -1.242779   -4.010317    1.341883
H      3.842509   -0.585413   -0.578094
H      3.701475    0.872587   -1.711673
H     -5.689838   -0.276000   -0.746635
H     -4.361768   -0.534725   -1.890534
H     -4.104146   -2.282163   -0.414768
H     -4.399287   -1.275344    1.035963
H     -2.749539    2.440758    0.107986
H      1.583586    2.217175   -1.651248
H      2.118181   -1.239667    0.858929
H     -5.144427    2.192655   -2.175362
H     -4.570064    3.217174   -0.837114
H     -2.066075    0.379950    1.618250
H     -1.955320   -1.300511   -0.845520
H     -6.891556    1.699741   -1.067758
H     -0.661998    3.145341   -1.916699
