52

C     -4.518863   -3.392608   -0.666849
C      5.328449   -2.471783    1.112658
C     -3.948022    1.675883    0.040918
C      3.124185    0.973427   -1.874643
C     -5.241696    1.311444    0.332727
C      4.476629    1.072652   -2.117595
C     -1.632922    1.005380   -0.661333
C      1.134402   -0.035559   -0.683416
C     -3.496377   -0.612128   -0.460187
C      3.453594   -0.735911   -0.288014
C     -1.317954    1.644417    1.692182
C      1.370567    0.828615    1.679691
C     -3.060725    0.697112   -0.361562
C      2.589225    0.084741   -0.971137
C     -0.803118    0.770915    0.577453
C      0.679714    0.946795    0.356461
C     -5.674514    0.012540    0.236465
C      5.315903    0.232118   -1.411141
C     -4.787230   -0.969959   -0.167468
C      4.830786   -0.678302   -0.493464
O     -1.219148    2.973991    1.334676
O      2.753207    1.009673    1.621717
O     -7.006971   -0.301779    0.547970
O      6.684380    0.319886   -1.644005
O     -5.209120   -2.251996   -0.264378
O      5.719792   -1.494711    0.183265
H     -3.645246    2.698562    0.124516
H      2.465017    1.621748   -2.417166
H     -5.942141    2.081551    0.650825
H      4.916888    1.764285   -2.823454
H     -2.761478   -1.364019   -0.784434
H      3.096520   -1.460439    0.436963
H     -3.655892   -3.110565   -1.300553
H     -5.159605   -4.072588   -1.271027
H     -4.080102   -3.948404    0.215190
H      4.750994   -2.003140    1.952096
H      4.753475   -3.300128    0.648325
H      6.241839   -2.923853    1.549478
H     -1.336602    0.257057   -1.446725
H     -1.524405    2.002244   -1.084073
H      0.596685    0.171140   -1.625215
H      0.932258   -1.061281   -0.343018
H     -0.855841    1.491040    2.668238
H     -2.420706    1.417949    1.874467
H      1.018445    1.718168    2.288093
H      1.168669   -0.133747    2.149455
H     -0.974995   -0.300812    0.884999
H      0.823206    1.963251   -0.104108
H     -0.771696    3.044982    0.468043
H      3.053852    1.110659    2.572113
H     -7.301356   -1.253794    0.471958
H      7.068039    0.975278   -2.309495
