32

C      3.526295    0.510559    3.170265
C     -3.652850   -2.614949   -1.513802
C     -2.513482    2.758556   -1.206568
C      0.209140   -1.366240   -0.543301
C     -1.069523   -1.807913   -0.864741
C     -0.496201    0.921729   -0.710038
C      2.022354    0.202570    1.369412
C      0.477705   -0.025782   -0.470575
C      1.833789    0.423844   -0.129742
C     -2.051928   -0.867021   -1.106354
C     -1.756892    0.481395   -1.026977
N      3.304239    0.697586    1.765200
O      2.828421   -0.254374   -0.805730
O     -3.342410   -1.256378   -1.430529
O     -2.770932    1.384189   -1.276655
H      3.275080    1.391419    3.774515
H      2.849088   -0.310659    3.514899
H      4.560596    0.166767    3.317685
H     -3.263918   -3.164608   -0.646292
H     -4.772371   -2.714741   -1.580532
H     -3.246316   -3.104775   -2.436013
H     -1.573511    3.054217   -1.741680
H     -2.493486    3.142786   -0.179094
H     -3.327875    3.301583   -1.766352
H      0.952239   -2.126802   -0.360749
H     -1.261867   -2.871690   -0.917260
H     -0.244589    1.964127   -0.642786
H      1.177557    0.645174    1.931749
H      2.002472   -0.892640    1.570215
H      1.977889    1.516755   -0.295515
H      3.512817    1.662287    1.434560
H      3.328469   -0.846972   -0.197215
