32

C      4.617485   -0.041422    1.128794
C     -3.969165    2.579840    0.062410
C     -2.739038   -2.792418    0.624420
C     -0.100901    1.218209   -0.751514
C     -1.369842    1.653595   -0.482643
C     -0.761227   -1.015063   -0.202800
C      2.430009   -0.135610    0.275646
C      0.188618   -0.107516   -0.609044
C      1.564421   -0.615619   -0.894555
C     -2.358073    0.805193   -0.075902
C     -2.034827   -0.545084    0.061577
N      3.801813   -0.498863    0.016482
O      1.971459   -0.031981   -2.084903
O     -3.634858    1.212451    0.199754
O     -3.036481   -1.412793    0.475139
H      4.575836    1.066103    1.178917
H      5.649379   -0.357995    0.935618
H      4.212896   -0.401308    2.103570
H     -3.599253    2.950573   -0.916983
H     -5.090700    2.625615    0.119142
H     -3.521077    3.139839    0.918360
H     -2.006443   -2.971491    1.447843
H     -2.228104   -3.174032   -0.308178
H     -3.628775   -3.408580    0.751160
H      0.653253    1.908449   -1.069026
H     -1.598675    2.709097   -0.596531
H     -0.527949   -2.067668   -0.090595
H      2.284153    0.963326    0.315282
H      2.039839   -0.589709    1.196552
H      1.596853   -1.710952   -0.946019
H      3.866606   -1.516849   -0.105309
H      2.752767    0.562664   -1.955294
