43

C     -4.943984    1.103224   -0.519773
C     -5.484959   -0.895334    0.745188
C      5.229803    1.458513    1.707114
C      3.939408    1.704047    2.112881
C      5.461078    0.717383    0.574149
C      2.878337    1.210077    1.387994
C      3.507536   -1.006990   -2.003225
C      2.221510   -0.746844   -1.576223
C     -2.723220   -0.904543   -0.279014
C     -0.556868    0.142361   -0.142435
C     -4.554763    0.320956    0.697652
C     -1.224676   -1.192879   -0.076526
C      4.386805    0.230472   -0.139473
C      3.093520    0.459462    0.241109
C      4.601857   -0.513721   -1.278088
C      1.961707   -0.010095   -0.446452
N     -3.188881   -0.033514    0.772184
O     -0.767631   -2.029146   -1.073186
O      5.879454   -0.782126   -1.716769
O      0.758254    0.261844   -0.005456
Br     0.766199    0.000000    0.000000
H     -5.229129    0.478963   -1.389441
H     -5.875576    1.677565   -0.246380
H     -4.191186    1.866981   -0.763933
H     -6.497464   -0.463900    0.943134
H     -5.530048   -1.413776   -0.216571
H     -5.255912   -1.553474    1.599528
H      6.070211    1.863583    2.303919
H      3.728454    2.286669    3.002522
H      6.483043    0.558997    0.308260
H      1.865404    1.388878    1.684360
H      3.737881   -1.582038   -2.885280
H      1.445833   -1.160678   -2.212287
H     -2.874199   -0.512311   -1.279707
H     -3.232568   -1.882839   -0.164250
H     -0.846954    0.545276   -1.179359
H     -1.177691    0.812260    0.523304
H     -4.818242    0.918700    1.592111
H     -1.068120   -1.682406    0.916168
H     -2.894540   -0.336094    1.711066
H     -1.031310   -1.601654   -1.942006
H      6.717826   -0.487465   -1.286811
H     -0.766199    0.000000    0.000000
