28

C     -4.197617    0.144744    0.177516
C     -3.688209   -0.820819   -0.656538
C     -3.330725    1.082811    0.695073
C     -2.330400   -0.848537   -0.969163
C     -1.966088    1.051656    0.378337
C      3.338678    0.282146    0.729339
C      4.267832   -0.800610    0.278629
C      0.750871    0.823193    0.213220
C     -1.457456    0.084300   -0.456762
C     -0.027412    0.045535   -0.798475
C      1.664600   -1.218422   -0.162076
N      0.544335   -1.254964   -0.777552
N      2.002431    0.062401    0.308343
S      3.092101   -2.224093    0.370323
Cl     0.683291    0.000000    0.000000
H     -5.271789    0.159525    0.419533
H     -4.376353   -1.551225   -1.056753
H     -3.715762    1.851751    1.354850
H     -2.006898   -1.632757   -1.627198
H     -1.367259    1.829310    0.830116
H      3.359439    0.350033    1.846194
H      3.711987    1.232139    0.277885
H      5.054319   -0.976233    1.032871
H      4.639701   -0.665389   -0.735731
H      0.249357    0.677558    1.211032
H      0.907933    1.867004   -0.048503
H      0.152384    0.448943   -1.843179
H     -0.683291    0.000000    0.000000
