56

C     -4.283709    0.099705    1.775488
C      5.605298   -1.898417   -0.410046
C     -7.951220    0.680754   -0.240286
C      5.554150    1.034900    2.597609
C     -3.225944    0.886598    1.030466
C      4.368828   -2.036166   -1.224541
C     -6.780125    0.418566   -0.932907
C      4.368179    0.486169    2.182109
C     -6.763641    0.573940    1.798151
C      6.752370   -0.309089    1.071412
C     -0.696367    0.530459   -0.566357
C      1.642534    0.591777   -0.862881
C     -5.590785    0.311303    1.103846
C      5.579507   -0.876190    0.635593
C     -7.960389    0.762273    1.134921
C      6.765058    0.664276    2.067555
C     -1.976584   -0.264421   -0.835900
C      2.879879   -0.054531   -1.398402
C     -5.581026    0.229055   -0.282955
C      4.390176   -0.479339    1.189620
C     -3.153476    0.578429   -0.429114
C      3.149641   -1.371770   -0.681138
F     -9.104267    1.019656    1.835472
F      7.922608    1.226364    2.500152
N      0.453870   -0.176478   -1.126123
O     -2.038540   -0.353225   -2.248809
O      2.771672   -0.205249   -2.760979
O     -4.374174   -0.034446   -0.885499
O      3.240863   -1.081477    0.714617
Cl     0.682967    0.000000    0.000000
H     -0.763866    1.541960   -1.006188
H     -0.568853    0.645371    0.525933
H      1.555034    1.631909   -1.217744
H      1.750354    0.645395    0.247781
H     -4.015977   -0.983757    1.621278
H     -4.263352    0.396213    2.820728
H      6.438236   -1.602791   -1.113768
H      5.943845   -2.873694    0.032479
H     -8.882557    0.827009   -0.762132
H      5.536521    1.780439    3.364109
H     -2.268524    0.711724    1.551104
H     -3.485236    1.971968    1.207705
H      4.517668   -1.692868   -2.288298
H      4.173431   -3.143629   -1.337029
H     -6.766297    0.352567   -2.023778
H      3.430144    0.796754    2.616918
H     -6.733595    0.631573    2.890168
H      7.715651   -0.591804    0.662082
H     -1.950575   -1.257397   -0.401611
H      3.731061    0.651895   -1.212604
H     -3.090615    1.537977   -0.982374
H      2.254979   -2.019343   -0.790198
H      0.312379   -0.437075   -2.107722
H     -2.731397   -0.980687   -2.525510
H      2.197158    0.506864   -3.154567
H     -0.682967    0.000000    0.000000
