28

C     -4.256923    0.059185    0.124534
C     -3.422550   -1.039621    0.325348
C     -3.676590    1.297834    0.026895
C     -2.045399   -0.894471    0.424713
C     -2.304619    1.421027    0.128425
C      3.432597    0.175371   -0.500847
C      4.202379   -1.032620   -0.021612
C      0.726528    0.064885   -0.784993
C     -1.479319    0.334533    0.327014
C     -0.032642    0.565701    0.421625
C      1.799077   -0.470422    1.117076
N      0.608948   -0.137151    1.486052
N      2.046093   -0.024179   -0.208351
S      3.346105   -1.294385    1.586890
Cl     0.692603    0.000000    0.000000
H     -5.321306   -0.025566    0.044481
H     -3.915279   -1.996924    0.397068
H     -4.298947    2.159100   -0.127838
H     -1.459573   -1.772379    0.578291
H     -1.890496    2.420949    0.045017
H      3.593814    0.235441   -1.584415
H      3.836543    1.111401   -0.062048
H      5.249083   -0.718079    0.136114
H      4.087884   -1.889111   -0.681460
H      0.326503   -0.943589   -1.042674
H      0.665284    0.743787   -1.650571
H      0.182808    1.649280    0.569299
H     -0.692603    0.000000    0.000000
