56

C     -4.342557    0.002038   -0.675854
C      4.577254    0.646551    0.823895
C     -5.144940   -4.083864    0.291563
C      5.578704   -1.645431   -2.521302
C     -3.954104    0.731796    0.593548
C      3.432898    1.600089    0.547481
C     -4.136487   -3.359693    0.903460
C      4.270695   -1.262266   -2.333903
C     -5.651270   -2.123161   -0.979717
C      6.229349   -0.540431   -0.537462
C     -1.313100    2.001314    1.404231
C      0.667506    2.813462    0.183104
C     -4.650987   -1.400241   -0.374649
C      4.926941   -0.163501   -0.358843
C     -5.902989   -3.443517   -0.659816
C      6.586156   -1.305916   -1.648158
C     -1.479874    0.563372    1.081296
C      1.230123    1.744968   -0.643755
C     -3.881737   -2.026990    0.580873
C      3.921928   -0.503692   -1.232000
C     -2.892789    0.068725    1.391496
C      2.245074    0.854583   -0.001223
F     -6.891198   -4.133824   -1.267227
F      7.884854   -1.672566   -1.810941
N     -0.032564    2.579109    1.352927
O     -0.663422   -0.147097    1.999127
O      1.904543    2.365050   -1.745700
O     -2.882301   -1.307528    1.186200
O      2.647482   -0.085135   -0.975983
Cl     0.689578    0.000000    0.000000
H     -1.759841    2.157427    2.449779
H     -2.040455    2.636923    0.783470
H     -0.043827    3.398915   -0.509198
H      1.488324    3.610755    0.313618
H     -5.276880    0.484476   -1.035949
H     -3.595809    0.135171   -1.458224
H      5.450143    1.286798    1.137161
H      4.279154    0.011087    1.695882
H     -5.311270   -5.124147    0.572675
H      5.849373   -2.241714   -3.386543
H     -4.897524    0.720279    1.223573
H     -3.802308    1.783809    0.341815
H      3.772538    2.377532   -0.169803
H      3.162463    2.040919    1.530713
H     -3.533336   -3.851108    1.653502
H      3.482023   -1.526924   -3.014750
H     -6.256650   -1.621338   -1.734704
H      7.027201   -0.282750    0.140551
H     -1.180454    0.321269    0.080240
H      0.480704    1.117511   -1.153143
H     -3.076218    0.285666    2.462154
H      1.773102    0.293056    0.826538
H     -0.034916    3.442052    1.950886
H     -0.762774    0.321448    2.885305
H      2.524049    1.717225   -2.158220
H     -0.689578    0.000000    0.000000
