86

C     -4.260046    4.576837    2.445594
C     -6.439598    0.345611   -3.293075
C      4.506346    5.517808   -0.689771
C      6.439699   -1.229436    2.200878
C     -3.573404    3.529637    3.046142
C     -4.612383    4.483407    1.117100
C     -5.150851   -0.066565   -3.529790
C     -6.756831    0.907974   -2.075811
C      5.166787    4.711837    0.217266
C      3.382823    5.026601   -1.290430
C      6.300339   -1.174544    0.815567
C      5.546548   -0.541197    2.985529
C     -4.308625   -1.963442    2.729348
C      2.519395    0.329103   -3.587344
C      2.157613   -3.774314    0.247627
C     -3.284251   -2.882652    2.620854
C      1.647303   -0.737530   -3.559705
C      1.341652   -3.719245    1.503529
C      1.243620   -4.060143   -0.905002
C     -3.269246    2.432812    2.287989
C     -4.289251    3.358084    0.376480
C     -4.174582    0.084561   -2.543842
C     -5.768151    1.054932   -1.092761
C      4.714746    3.444276    0.517118
C      2.927679    3.751812   -0.989218
C      5.278529   -0.437446    0.273834
C      4.518655    0.199001    2.402239
C     -4.269272   -0.850186    1.921741
C      2.908602    0.908120   -2.400767
C     -1.154490   -3.677198    1.613774
C      0.227128   -2.382333   -2.415816
C     -2.244196   -2.705076    1.733766
C      1.167642   -1.222458   -2.359882
C      0.122389   -2.880787    1.362241
C      0.137670   -3.078106   -1.077268
C     -3.607249    2.308189    0.956670
C     -4.477730    0.644736   -1.323545
C      3.574137    2.932992   -0.086095
C      4.367207    0.263270    1.033949
C     -3.251698   -0.631692    1.022376
C      2.423265    0.416572   -1.195756
C     -2.231933   -1.574639    0.934059
C      1.552420   -0.648646   -1.170236
C      0.034838   -2.119176    0.083565
O     -1.182680   -1.403400    0.044600
O      1.069305   -1.138008    0.029743
P     -3.193526    0.835105   -0.048569
P      2.999556    1.249412    0.330154
H     -4.520794    5.460361    3.007545
H     -7.218087    0.231178   -4.064333
H      4.841383    6.514340   -0.940589
H      7.244436   -1.811113    2.605995
H     -3.291530    3.601430    4.101813
H     -5.145970    5.299994    0.654882
H     -4.918677   -0.503680   -4.483569
H     -7.774326    1.222296   -1.918319
H      6.046258    5.097434    0.687074
H      2.787553    5.574163   -2.018461
H      7.010697   -1.721773    0.202011
H      5.643981   -0.575127    4.061347
H     -5.098179   -2.133137    3.426845
H      2.915830    0.734996   -4.508383
H      2.826651   -2.918555    0.103696
H      2.832458   -4.673024    0.347104
H     -3.248290   -3.789436    3.227747
H      1.340993   -1.194381   -4.508362
H      1.968002   -3.443001    2.399727
H      1.005769   -4.775024    1.724179
H      1.893251   -4.138737   -1.823637
H      0.862878   -5.112981   -0.762361
H     -2.735392    1.616843    2.751302
H     -4.584914    3.324768   -0.663567
H     -3.172559   -0.249267   -2.760992
H     -6.077853    1.502116   -0.158231
H      5.219491    2.799714    1.224636
H      2.024117    3.359657   -1.474414
H      5.189255   -0.408829   -0.802628
H      3.845675    0.719848    3.045628
H     -5.051127   -0.101156    1.971253
H      3.603644    1.758362   -2.425284
H     -0.978444   -4.271582    2.522291
H     -1.336020   -4.416172    0.795278
H     -0.740391   -2.110462   -2.842310
H      0.699282   -3.115988   -3.115246
H      0.148352   -2.115360    2.193924
H     -0.833300   -3.653180   -1.087786
