114

C    -15.353607    3.763931    0.814308
C     13.495162    1.532616   -2.659378
C    -14.211151    2.783037    1.082352
C     13.491129    2.434143   -1.461674
C    -13.660185    2.379031   -0.281305
C     12.781687    1.738240   -0.300853
C    -12.544894    1.402076   -0.060715
C     12.805789    2.678516    0.883814
C    -11.934719    0.950600   -1.394602
C     12.137235    2.068578    2.087109
C    -11.386505    2.107974   -2.044863
C     10.724795    1.732617    1.782475
C    -10.132536    2.211763   -2.365543
C      9.862076    2.901976    1.361067
C     -9.118600    1.181864   -2.116435
C      8.463292    2.298189    1.135886
C     -8.059975    1.731346   -1.249353
C      8.608455    1.273814    0.090982
C     -7.762109    1.217104   -0.093246
C      8.340401   -0.024746    0.269263
C     -8.408479    0.071436    0.484780
C      7.876612   -0.593049    1.511411
C     -7.532958   -1.103451    0.802091
C      6.502125   -1.253552    1.337179
C     -6.823867   -1.729225   -0.321445
C      6.578835   -2.338164    0.333468
C     -5.796830   -0.959290   -1.054497
C      5.392835   -3.111614   -0.031454
C     -4.634692   -0.530421   -0.174977
C      4.686247   -3.926228    0.961298
C     -3.611985    0.247744   -0.963624
C      3.984910   -3.212506    2.039184
C     -2.390644    0.633813   -0.181454
C      2.902288   -2.277633    1.493993
C     -0.132388   -3.081216   -1.973086
C     -1.564229   -3.065070    0.027084
C     -0.177420   -3.268348   -0.457389
C     -1.635258   -0.585546    0.269499
C      1.870704   -3.066760    0.838002
O      1.099649   -3.430318   -2.467680
O     -0.663404   -0.516253    1.036994
O      1.905155   -4.314470    0.841929
O     -2.036134   -1.789892   -0.184754
O      0.799685   -2.486488    0.175801
H    -16.272338    3.153172    0.650524
H    -15.490304    4.358251    1.743243
H    -15.190672    4.375531   -0.088188
H     12.824576    1.914156   -3.449762
H     13.154736    0.505392   -2.371042
H     14.544849    1.445938   -3.029484
H    -14.646381    1.920553    1.620829
H    -13.413809    3.278390    1.685254
H     14.536683    2.625123   -1.119319
H     12.976001    3.360562   -1.720333
H    -13.307211    3.295093   -0.765683
H    -14.464556    1.909704   -0.894802
H     11.739307    1.572594   -0.667116
H     13.278987    0.782549   -0.070081
H    -12.874983    0.509452    0.502829
H    -11.730353    1.903690    0.543499
H     12.305225    3.610707    0.618693
H     13.879618    2.837106    1.173413
H    -11.337137    0.094577   -1.182464
H    -12.823779    0.583507   -1.992359
H     12.655106    1.132707    2.415976
H     12.153792    2.811818    2.921198
H    -12.042236    2.938778   -2.288595
H     10.214798    1.236919    2.659661
H     10.686495    0.987253    0.956650
H     -9.780234    3.137812   -2.862801
H      9.810145    3.672531    2.153540
H     10.198996    3.292420    0.388379
H     -8.586183    1.079877   -3.133114
H     -9.458328    0.186727   -1.928498
H      8.127407    1.967460    2.111562
H      7.793323    3.129370    0.819890
H     -7.485749    2.622028   -1.588271
H      8.953390    1.584518   -0.882382
H     -6.947866    1.702272    0.488334
H      8.500916   -0.694721   -0.596457
H     -9.276994   -0.339950   -0.078091
H     -8.840944    0.413119    1.496753
H      8.568745   -1.472756    1.745024
H      7.920078    0.014744    2.413942
H     -6.848633   -0.845327    1.665741
H     -8.187943   -1.910651    1.260750
H      5.698089   -0.533417    1.202395
H      6.342035   -1.743096    2.351943
H     -6.351478   -2.685993    0.032291
H     -7.593764   -2.048773   -1.074443
H      7.009036   -1.936389   -0.658058
H      7.365534   -3.092773    0.702445
H     -5.308075   -1.715081   -1.767227
H     -6.137336   -0.173865   -1.738181
H      5.653360   -3.730750   -0.960977
H      4.667592   -2.348075   -0.515013
H     -5.054427    0.217212    0.575717
H     -4.164466   -1.304731    0.399580
H      3.977075   -4.610931    0.406857
H      5.406287   -4.705799    1.417175
H     -3.284788   -0.438629   -1.797874
H     -4.039093    1.164807   -1.426364
H      3.388863   -4.024216    2.657056
H      4.549666   -2.668228    2.794676
H     -1.760177    1.288521   -0.786169
H     -2.714408    1.174931    0.739056
H      2.475363   -1.676143    2.339965
H      3.371988   -1.540281    0.811918
H     -0.865103   -3.841820   -2.366039
H     -0.513287   -2.104193   -2.300989
H     -1.701004   -3.381942    1.097662
H     -2.273213   -3.759452   -0.523478
H      0.101123   -4.347247   -0.310674
H      1.201568   -4.394524   -2.451733
