59

C      7.507146   -0.646306   -1.934741
C     -7.050092    0.921202   -0.408110
C      6.170246   -1.288532   -1.641223
C      6.015291   -1.382951   -0.160201
C      6.069958   -0.007196    0.467368
C      4.966975    0.876323   -0.063725
C      3.582376    0.325098    0.195943
C      3.351762    0.177183    1.661191
C      1.979586   -0.379089    1.926987
C      0.874649    0.534796    1.386440
C     -0.433924   -0.103851    1.717404
C     -1.571677    0.747007    1.239667
C     -1.513447    0.914037   -0.242582
C     -2.652683    1.750360   -0.722673
C     -3.972349    1.099396   -0.349914
C     -4.083836   -0.243984   -0.956113
C     -6.639384   -0.364017   -1.001953
C     -5.337182   -0.951475   -0.623209
N     -7.703997   -1.334268   -0.599024
O     -5.214689   -2.231257   -1.277164
H      7.928170   -1.103694   -2.849643
H      7.361583    0.449010   -2.091807
H      8.185806   -0.808252   -1.077615
H     -6.545507    1.120844    0.558734
H     -8.150994    0.876430   -0.103386
H     -7.029740    1.808950   -1.068374
H      6.190937   -2.317430   -2.078349
H      5.347133   -0.720441   -2.085160
H      5.074994   -1.862058    0.171502
H      6.851800   -1.970225    0.300296
H      7.051229    0.478425    0.193569
H      6.036652   -0.145870    1.565950
H      5.122008    1.060564   -1.139029
H      5.002591    1.888222    0.426889
H      2.873547    1.040717   -0.278964
H      3.510328   -0.645728   -0.306798
H      3.394395    1.172249    2.195647
H      4.132474   -0.484258    2.096469
H      1.852418   -0.519559    3.018124
H      1.876043   -1.402250    1.474692
H      0.939639    1.487840    1.948762
H      1.021059    0.740009    0.328859
H     -0.523340   -0.355956    2.802642
H     -0.539546   -1.095750    1.182750
H     -2.523452    0.227250    1.521150
H     -1.565387    1.723058    1.774529
H     -1.472314   -0.087603   -0.712370
H     -0.554772    1.410895   -0.571523
H     -2.587338    2.782147   -0.281202
H     -2.584489    1.911277   -1.817078
H     -4.738587    1.823853   -0.740624
H     -4.153332    1.063931    0.738377
H     -3.260796   -0.869627   -0.479274
H     -3.809250   -0.280180   -2.033838
H     -6.716804   -0.319145   -2.106430
H     -5.331134   -1.207573    0.456194
H     -8.608220   -0.841114   -0.512685
H     -7.418671   -1.670500    0.361728
H     -5.983862   -2.770930   -0.999091
