39

C     -1.315534    1.919227   -1.993295
C      0.013988   -0.902556    1.108648
C     -4.672689   -0.699747    0.595653
C     -4.372864    0.599721    0.877462
C     -3.768844   -1.425042   -0.134203
C      3.913458   -1.276629   -1.221923
C      4.916717   -0.980595   -0.298130
C     -3.185162    1.136179    0.429670
C     -2.566246   -0.895737   -0.594656
C      2.594062   -0.936668   -0.907768
C      4.569449   -0.366351    0.887481
C     -1.009147    1.107900   -0.700913
C      0.884254    0.188317    0.510038
C     -2.241049    0.404576   -0.323442
C      2.242333   -0.324960    0.266207
C      3.256748   -0.050370    1.149862
N      0.230245    0.470221   -0.780066
O      2.924298    0.554700    2.337665
Cl     0.688129    0.000000    0.000000
H     -1.955292    1.283283   -2.651093
H     -1.809756    2.857370   -1.750331
H     -0.325665    2.057551   -2.461899
H     -0.896086   -0.442699    1.486345
H      0.526326   -1.289387    2.053951
H     -0.166001   -1.711742    0.428444
H     -5.625518   -1.143895    0.959941
H     -5.064401    1.196917    1.449433
H     -4.051092   -2.478292   -0.330166
H      4.229419   -1.740369   -2.133728
H      5.958673   -1.231813   -0.485850
H     -2.973889    2.165714    0.643732
H     -1.904361   -1.488698   -1.154166
H      1.866777   -1.171675   -1.659761
H      5.332379   -0.145687    1.619065
H     -0.909867    1.978398    0.063922
H      0.808415    1.094973    1.106238
H      0.876979    0.963810   -1.420364
H      3.668942    0.724053    3.027996
H     -0.688129    0.000000    0.000000
