43

C      5.273373   -0.405887    0.791317
C      5.341429    1.650864   -0.521076
C     -5.439459    1.871534    0.274317
C     -4.203962    2.474280    0.259899
C     -5.515406    0.492009    0.377727
C     -3.041886    1.719564    0.346843
C     -3.200805   -2.362475    0.655419
C     -1.994113   -1.712573    0.636751
C      2.632457   -0.862915   -0.435619
C      0.570596    0.115980    0.552220
C      4.764109    0.230524   -0.456829
C      1.146463   -0.682004   -0.568012
C     -4.354968   -0.277094    0.465799
C     -3.128805    0.354223    0.448639
C     -4.399755   -1.643732    0.569423
C     -1.910667   -0.353052    0.533867
N      3.307720    0.388635   -0.480101
O      0.925951   -0.033753   -1.792114
O     -5.582748   -2.324806    0.590918
O     -0.775168    0.343107    0.510832
Br     0.764443    0.000000    0.000000
H      5.399109   -1.509880    0.701897
H      6.310405   -0.002066    0.965062
H      4.644600   -0.234149    1.682423
H      4.551715    2.413420   -0.374380
H      6.094816    1.813676    0.291817
H      5.806218    1.853237   -1.514595
H     -6.374749    2.409468    0.210780
H     -4.113983    3.535076    0.181561
H     -6.455388   -0.006200    0.392636
H     -2.090781    2.219331    0.332286
H     -3.270837   -3.427726    0.736472
H     -1.104316   -2.329603    0.721478
H      2.796469   -1.288953    0.605069
H      2.995805   -1.589008   -1.192548
H      1.142726    1.094852    0.623012
H      0.786552   -0.402482    1.544228
H      5.076169   -0.367040   -1.337871
H      0.657668   -1.704283   -0.601462
H      3.021065    0.987443    0.343153
H      0.202793   -0.486884   -2.308149
H     -6.490410   -1.960659    0.540584
H     -0.764443    0.000000    0.000000
