80

C     -5.179134    3.814898   -0.736944
C     -1.203520    4.060633    2.043547
C      0.073325   -5.328222    0.345319
C     -2.559461   -4.205202   -0.873597
C     -3.491071   -0.987769    0.319911
C     -0.287715   -1.897445   -2.644139
C      4.010601    1.078683    1.271518
C      3.755377    1.535541   -0.998448
C      2.692101    1.576945    1.538366
C      2.431567    2.036706   -0.732559
C     -3.089692    4.011096    0.500627
C     -3.631117    1.928191   -0.653532
C      0.519521   -3.151126   -0.773830
C      5.815413    0.262343   -0.196696
C      3.981352   -1.339756   -0.952560
C     -3.716480    3.466324   -0.760313
C     -1.679475    3.516874    0.737994
C     -0.286366   -3.976531   -0.153791
C     -1.664980   -3.370850   -0.002813
C     -2.195748   -0.911987   -0.338389
C      4.525405    1.048556    0.047077
C      1.954446    2.022707    0.546882
C     -2.200334    1.608538   -0.652115
C      3.120341   -1.434706    0.028817
C     -1.703760    2.008525    0.719833
C     -1.648948    0.303257   -0.892149
C     -0.156522    0.517320   -0.418097
C     -1.445924   -2.003488   -0.444049
C      0.655606   -0.629585   -0.658802
C      1.683862   -1.252065    0.196859
C     -0.392853    1.331646    0.804337
C      4.021129   -1.842872    1.161384
C     -0.109489   -1.886554   -1.150922
C      5.406085   -1.202193   -0.452558
N      5.242261   -1.939207    0.752081
O      1.071173   -1.675474    1.260323
O      3.689493   -2.100321    2.480065
O      6.360381   -1.768970   -1.218837
O      0.594300    2.468035    0.895368
H     -5.360556    4.771759   -1.275001
H     -5.818702    3.040289   -1.177210
H     -5.535589    3.979192    0.307388
H     -1.929719    4.768355    2.512767
H     -1.089771    3.220089    2.780793
H     -0.213742    4.553025    1.998764
H     -0.690093   -5.710023    1.057565
H      0.141540   -5.999021   -0.528513
H      1.046286   -5.249769    0.899328
H     -2.381403   -4.058786   -1.944669
H     -3.629580   -4.162320   -0.584011
H     -2.267056   -5.280543   -0.671188
H     -3.876623   -2.029414    0.487028
H     -4.288548   -0.547086   -0.354826
H     -3.535171   -0.534058    1.328149
H      0.207949   -0.976692   -3.051004
H     -1.327227   -2.026379   -2.978204
H      0.272614   -2.742226   -3.126306
H      4.488855    0.769439    2.305410
H      3.904163    1.659646   -2.067607
H      2.426833    1.561051    2.686578
H      1.953492    2.432259   -1.654441
H     -3.704082    3.609294    1.351311
H     -3.152358    5.106131    0.570447
H     -4.109088    1.741381    0.339003
H     -4.222939    1.556102   -1.501923
H      1.567870   -3.385425   -0.990380
H      6.357810    0.554979   -1.131169
H      6.538469    0.187118    0.601946
H      3.977217   -1.338418   -2.040247
H     -3.206786    3.815954   -1.676845
H     -1.055464    3.864250   -0.088849
H     -1.947153   -3.507849    1.039119
H     -1.694357    2.335136   -1.353142
H     -2.467662    1.606556    1.428547
H     -1.633416    0.137909   -2.016331
H      0.066428    1.310955   -1.177631
H      1.293304   -0.469233   -1.602912
H     -0.400097    0.813381    1.751015
H      4.359276   -2.498429    3.137926
H      5.973928   -2.571072   -1.683693
