80

C     -5.732013   -2.376517   -0.320564
C     -2.991968   -3.299045    1.676520
C      0.668974    3.184219    3.441068
C     -0.745511    4.587645    0.756329
C     -3.201042    1.907362    0.122406
C      1.114701    3.085187   -0.843776
C      3.742440   -1.255666    1.783521
C      3.539759   -2.525491   -0.222518
C      2.308174   -1.337861    1.864683
C      2.103610   -2.593140   -0.119010
C     -3.394186   -3.200406   -0.715534
C     -3.993987   -0.778652   -1.063105
C      1.221013    1.957837    1.249690
C      5.696358   -1.252416    0.125033
C      3.920804    0.343503   -0.361032
C     -4.453672   -2.250127   -1.113087
C     -2.448928   -2.775928    0.364247
C      0.451942    2.767617    2.017945
C     -0.766934    3.204257    1.252592
C     -1.841235    1.469569   -0.286112
C      4.304136   -1.853855    0.703137
C      1.536583   -1.968249    0.942907
C     -2.524203   -0.842718   -1.051117
C      3.275298    0.594027   -1.464133
C     -2.145436   -1.334331    0.367650
C     -1.689176    0.321743   -1.200048
C     -0.301749   -0.375393   -0.744364
C     -0.831871    2.111497    0.269507
C      0.655735    0.729283   -0.958034
C      1.866514    0.467179   -1.765665
C     -0.695819   -0.935515    0.544657
C      4.404697    0.905412   -2.415756
C      0.631572    1.854399   -0.021962
C      5.136255   -0.447155   -1.001767
N      5.554206    0.722763   -1.643415
O      1.550146    0.036762   -2.979394
O      4.399535    1.289915   -3.727605
O      4.520160   -1.357925   -1.918790
O      0.097410   -2.006025    0.974609
H     -5.945288   -3.385224    0.023103
H     -5.666364   -1.625573    0.504044
H     -6.577554   -2.042605   -0.957508
H     -3.239325   -2.490265    2.382080
H     -2.244422   -3.951280    2.190968
H     -3.892094   -3.936219    1.535647
H     -0.114064    2.777558    4.104384
H      0.637417    4.294790    3.456231
H      1.673683    2.877443    3.786650
H      0.097024    5.168221    1.246094
H     -0.780030    4.750859   -0.323200
H     -1.655415    5.172112    1.136876
H     -3.526778    1.466748    1.094616
H     -3.959326    1.827010   -0.681943
H     -3.201954    3.022679    0.353982
H      2.066024    2.693670   -1.323666
H      0.449879    3.288370   -1.675631
H      1.434026    3.898947   -0.210000
H      4.160469   -0.748688    2.698706
H      3.767487   -3.223622   -1.075428
H      2.011461   -0.817011    2.806675
H      1.633642   -3.186537   -0.954537
H     -3.920030   -4.144215   -0.388964
H     -2.847163   -3.536404   -1.644692
H     -4.477058   -0.192351   -1.841819
H     -4.346550   -0.412509   -0.053624
H      2.121612    1.551927    1.747598
H      6.156297   -0.524733    0.738079
H      6.403006   -2.024081   -0.046776
H      3.949393    0.519895    0.682401
H     -4.719995   -2.432271   -2.174358
H     -1.478756   -3.318371    0.150753
H     -1.596055    3.132841    2.009188
H     -2.178389   -1.629751   -1.789038
H     -2.824305   -0.826137    1.083848
H     -1.538648    0.655596   -2.213656
H     -0.183409   -1.138658   -1.517490
H      0.027128    1.321160   -1.805608
H     -0.682887   -0.192833    1.369014
H      5.191365    1.806291   -4.126727
H      4.873653   -1.220538   -2.815987
