83

C     -4.457761   -3.803853   -1.025835
C     -1.343088   -4.542335    0.731890
C     -2.979789    3.436661    2.984307
C     -2.662384    4.284717   -0.307449
C     -3.431302    1.079986   -1.741806
C      0.044332    3.437147    0.089399
C      4.206864   -1.555099    1.586781
C      4.206339   -1.528104   -0.805264
C      2.843479   -1.986554    1.500602
C      2.832612   -1.962583   -0.843745
C     -2.024695   -4.024256   -1.621412
C     -3.140877   -1.762848   -1.703605
C     -0.997685    2.340187    1.875150
C      5.894360   -0.082337    0.379620
C     -3.288742   -3.291593   -1.841064
C     -1.205110   -3.626006   -0.452762
C     -2.209501    2.952627    1.804856
C     -2.690672    3.007973    0.368744
C     -2.082667    0.969624   -1.064137
C      4.823638   -1.321762    0.401336
C      2.165954   -2.168141    0.328317
C     -1.717270   -1.478363   -1.431504
C     -1.431049   -2.186938   -0.119906
C     -1.181498   -0.120171   -1.392423
C     -0.022989   -0.275258   -0.409144
C      2.944217    1.615999    0.600644
C     -1.886052    1.889924   -0.159411
C      0.406807    1.088393    0.071562
C      1.744810    1.123935    0.757232
C     -0.226811   -1.452992    0.412414
C      4.206266    1.471063    1.458137
C      3.664912    2.618213   -0.313435
C     -0.602853    2.043798    0.530715
C      4.993396    1.030626    0.129620
N      4.977863    2.296840   -0.353430
O      1.370243    0.327849    1.953542
O      4.719471    2.713546    1.790876
O      3.225042    3.694980   -1.033219
O      3.903463    0.445145   -0.731998
O      0.756440   -2.516827    0.334752
H     -5.169955   -4.414180   -1.623814
H     -5.075922   -2.961140   -0.618233
H     -4.084700   -4.462842   -0.219541
H     -1.670298   -3.889697    1.598642
H     -2.010491   -5.396847    0.575744
H     -0.361461   -4.960216    1.031871
H     -4.072395    3.401728    2.812452
H     -2.752590    2.812126    3.888651
H     -2.694915    4.476051    3.285380
H     -1.981167    4.306572   -1.207312
H     -3.675404    4.485982   -0.810723
H     -2.553231    5.207552    0.321195
H     -3.761563    2.192413   -1.700805
H     -3.369977    0.924375   -2.827856
H     -4.233313    0.561803   -1.266346
H      1.081954    3.423265    0.557546
H      0.195504    3.444300   -0.985284
H     -0.447278    4.257287    0.578278
H      4.556723   -1.564449    2.659705
H      4.557408   -1.538632   -1.874241
H      2.503432   -2.149981    2.556655
H      2.482850   -2.096708   -1.897961
H     -1.445234   -4.050338   -2.594106
H     -2.304844   -5.105067   -1.479434
H     -3.522762   -1.261227   -2.571943
H     -3.732135   -1.548301   -0.764404
H     -0.585601    2.217494    2.882318
H      6.714146   -0.320302   -0.278620
H      6.358411    0.085781    1.326440
H     -3.586941   -3.445511   -2.906100
H     -0.125708   -3.713082   -0.796432
H     -3.782385    2.694007    0.477084
H     -1.146368   -2.079005   -2.237880
H     -2.290890   -2.161919    0.568363
H     -0.774720    0.128505   -2.419922
H      0.836125   -0.597989   -1.096414
H      0.505937    1.553277   -1.011821
H     -0.435847   -1.274366    1.486946
H      4.421895    0.733947    2.146560
H      0.672254    0.494093    2.564052
H      4.858277    2.786503    2.767769
H      3.386275    3.847019   -2.018778
H      4.169189    0.774504   -1.616634
