48

C     -5.283941    2.454040   -1.865744
C     -4.828782   -0.226307    1.846295
C     -1.761848   -1.927877    2.019747
C      3.294205   -1.717437    0.572495
C      3.993030   -1.412831    1.729126
C      3.885208    0.399490   -0.275766
C     -2.712025    1.073028   -1.858919
C      2.466599   -1.085753   -1.709532
C      0.323390   -0.726696   -2.952586
C      5.699517    1.638122    2.652511
C      3.220191   -0.818309   -0.463290
C      4.627407   -0.211917    1.870514
C      4.582299    0.727517    0.853143
C     -1.487141    0.402928   -1.808847
C     -3.498717    1.191091   -0.732350
C     -1.076051   -0.144854   -0.593719
C     -3.060210    0.636743    0.451235
C     -1.836016   -0.043255    0.538621
C      0.226416   -0.834299   -0.570516
C      1.138281   -0.471148   -1.666492
O      0.396489   -1.624820    0.353649
O      1.318810    0.940520   -1.688806
O     -4.713162    1.846644   -0.748254
O     -3.853281    0.761316    1.567099
O     -1.392123   -0.598251    1.706774
O     -0.683215    0.273095   -2.927478
O      5.368624    0.299469    2.912257
O      5.311802    1.807523    1.310347
H     -4.488987    3.111039   -2.321695
H     -5.612604    1.736286   -2.641486
H     -6.083280    3.149872   -1.547734
H     -5.863033    0.142504    1.645841
H     -4.688983   -1.115781    1.188412
H     -4.729987   -0.615206    2.889987
H     -2.066133   -2.523270    1.135505
H     -0.964810   -2.485606    2.557445
H     -2.660279   -1.944105    2.692869
H      2.825051   -2.670097    0.485056
H      4.015122   -2.162259    2.511751
H      3.845975    1.126642   -1.072216
H     -3.025574    1.492002   -2.789788
H      2.459504   -2.196246   -1.857966
H      3.067040   -0.627566   -2.532227
H      0.955136   -0.662798   -3.836244
H     -0.140654   -1.730859   -2.799131
H      5.064463    2.302309    3.275870
H      6.788981    1.832971    2.803138
H      1.637296    1.232396   -2.586764
