54

C     -4.648787   -2.689014    0.105240
C      3.817671   -4.129498   -1.499928
C      5.422162    0.629816    0.988417
C      0.465921    5.698241    1.992197
C     -3.482610   -2.834863   -0.817957
C     -3.234059    1.648229    0.051612
C     -3.059197   -1.599740   -1.538971
C     -3.508660    0.135991    0.126033
C     -0.352349   -1.283514   -1.122670
C     -1.393604    3.066359    0.810251
C      1.973748   -2.085234   -0.936081
C      2.777092    0.261815    0.309345
C     -1.804183    1.850586    0.325902
C      1.044356   -1.092012   -0.657285
C      1.469196    0.084749   -0.026255
C     -1.269984   -0.499955   -0.294467
C      3.294611   -1.905244   -0.596336
C      3.714367   -0.753378    0.019188
C     -0.046045    3.331811    1.083618
C     -0.857888    0.862315    0.103142
C      0.483255    1.119132    0.367389
C      0.900590    2.318639    0.848936
N     -2.645456   -0.570608   -0.714576
O      2.192668    2.652636    1.137463
O      4.181228   -2.928216   -0.898622
O      5.030677   -0.567214    0.359218
O      0.279812    4.502279    1.543234
H     -5.511635   -2.182334   -0.414419
H     -5.013398   -3.707194    0.428574
H     -4.444718   -2.162066    1.046797
H      3.707115   -3.938200   -2.602662
H      2.875997   -4.574163   -1.172580
H      4.664724   -4.864025   -1.431353
H      5.161319    1.511767    0.385184
H      4.873050    0.667827    1.961620
H      6.513451    0.579183    1.237344
H     -0.532676    6.203474    2.246049
H      0.914423    6.474861    1.274783
H      1.096019    5.820004    2.931364
H     -2.639052   -3.236978   -0.179018
H     -3.668982   -3.675371   -1.553844
H     -3.850582    2.103663    0.858358
H     -3.554085    2.015183   -0.949393
H     -2.383519   -1.826248   -2.403464
H     -4.002814   -1.239637   -2.078285
H     -4.584856   -0.051664   -0.050695
H     -3.262050   -0.119290    1.186428
H     -0.374336   -1.057956   -2.208725
H     -0.560383   -2.380816   -0.954487
H     -2.146103    3.824825    0.977989
H      1.613317   -3.002116   -1.431189
H      3.139965    1.135758    0.795711
H     -1.298301   -1.057971    0.717824
H      2.523577    3.515377    1.487540
