35

C      3.626002   -0.039194   -1.043453
C     -0.262892   -1.918328   -0.259029
C     -0.408874   -1.621766   -1.706747
C      2.287217    0.211024   -1.185590
C     -3.004426   -1.052528    0.311979
C     -2.166921   -0.161652   -0.573878
C      4.178713   -0.197665    0.214050
C     -2.102201    1.253090   -0.011205
C     -0.735140    1.192511    0.700111
C      0.086600    0.574796   -0.380968
C      2.023073    0.154704    1.083157
C     -0.760711   -0.625452   -0.721647
N      3.337125   -0.092401    1.255396
N      1.444045    0.315182   -0.114114
O     -4.291972   -0.522612    0.378730
O      5.515454   -0.450649    0.424272
O     -1.994800    2.176222   -1.027600
O     -0.342423    2.434677    1.100590
O      1.314405    0.237447    2.089232
H      4.293439   -0.121296   -1.898706
H     -0.943236   -2.593612    0.277904
H      0.790961   -1.993624    0.099359
H     -1.268235   -2.171098   -2.193702
H      0.476475   -1.592106   -2.342866
H      1.909536    0.326113   -2.189535
H     -2.545865   -1.106998    1.304017
H     -3.078692   -2.037953   -0.160952
H     -2.648483   -0.066839   -1.576476
H     -2.901137    1.460610    0.705786
H     -0.935879    0.481547    1.554917
H      0.040918    1.292774   -1.252969
H     -4.399228    0.307533   -0.131626
H      6.206248    0.285695    0.240906
H     -2.169921    3.083041   -0.687028
H     -0.569176    2.578809    2.055622
