45

C      5.168700   -2.255825    1.182881
C      4.093935    2.407294   -1.560436
C     -4.015395    3.125383   -1.959176
C     -3.774715   -1.230365    0.595827
C     -3.355446   -1.582886    1.981679
C      0.216846   -2.137524    1.125837
C     -3.203938    0.879508   -0.643772
C      2.521415   -1.518520    0.754745
C      1.878015    0.792511   -0.604624
C     -2.791817   -0.252237    0.019035
C      1.176959   -1.191913    0.565480
C      0.894175   -0.021415   -0.123148
C     -1.198254   -1.812065    0.928018
C      3.537408   -0.722392    0.283659
C      3.218169    0.426687   -0.392228
C     -2.228644    1.716088   -1.137076
C     -1.463669   -0.567107    0.200241
C     -0.514890    0.303252   -0.312716
C     -0.868494    1.443552   -0.980730
N     -1.951801   -1.724608    2.189228
O     -0.015174    2.351064   -1.515297
O      4.861943   -1.067923    0.484113
O      4.263102    1.210362   -0.856023
O     -2.647764    2.856233   -1.804836
H      4.747864   -2.276086    2.208539
H      4.721671   -3.107324    0.603273
H      6.260578   -2.354547    1.212559
H      3.923682    2.203572   -2.643284
H      5.041960    3.001739   -1.461754
H      3.262673    3.015465   -1.171730
H     -4.555852    2.297891   -2.457203
H     -4.506216    3.346370   -0.975134
H     -4.124315    4.025714   -2.614328
H     -3.766506   -2.124473   -0.088327
H     -4.774010   -0.761758    0.640329
H     -3.844161   -2.534544    2.275616
H     -3.751057   -0.801033    2.676858
H      0.445042   -2.221231    2.228598
H      0.465864   -3.151577    0.723181
H     -4.269610    1.102281   -0.771663
H      2.795016   -2.434097    1.293224
H      1.710489    1.692204   -1.134148
H     -1.695145   -2.636762    0.347195
H     -1.542942   -0.874839    2.679947
H     -0.345687    3.165880   -1.992429
