62

C     -9.296907    0.714911   -2.573336
C     -9.601360    0.490700   -0.200249
C     10.764346   -0.030476   -2.203510
C     -7.155829   -0.300836   -0.997927
C      6.794239    0.340548   -0.998294
C      8.109034    0.179237   -1.382694
C     -7.533133    1.154648   -1.085498
C     -5.661795   -0.461156   -0.810803
C      6.799136   -1.856525   -0.161583
C      4.680713   -0.525391    0.040081
C     -1.798295    1.204569    0.867810
C     -2.213717   -0.822053    2.085535
C      0.846570   -0.230784    0.939814
C      6.093349   -0.671034   -0.374537
C     -1.392160    0.190202    1.678127
C      8.112340   -2.013442   -0.547022
C     -3.121882    1.217037    0.426634
C     -3.526728   -0.787580    1.632751
C      4.496526   -0.019777    1.413735
C      0.036010    0.175025    2.149381
C      8.801486   -0.995301   -1.169349
C     -3.975634    0.212714    0.817698
C      3.102914    0.140782    1.896930
Br     9.050343   -3.651684   -0.241499
Br    -3.743780    2.613590   -0.710563
Br    -4.683003   -2.188288    2.189622
N      2.195008   -0.148365    1.128153
N      5.479644    0.274229    2.177012
N     -8.970880    1.236801   -1.262459
O      0.300756    1.487552    2.529654
O      2.850404    0.605616    3.183882
O      6.765318    0.127501    1.737175
O     10.127832   -1.133569   -1.566747
O     -5.291519    0.199482    0.395354
H     -9.891330    1.456437   -3.109004
H     -8.389080    0.499806   -3.178009
H     -9.914390   -0.206439   -2.471676
H    -10.605120    0.952910    0.015588
H     -9.009015    0.535084    0.716855
H     -9.771051   -0.575964   -0.478353
H     10.189504    0.271457   -3.104809
H     10.758739    0.869538   -1.537670
H     11.777900   -0.286330   -2.545276
H     -7.450626   -0.841036   -1.936604
H     -7.733192   -0.770090   -0.189934
H      6.259751    1.278086   -1.176262
H      8.651857    0.989842   -1.876114
H     -7.187336    1.700270   -0.208410
H     -7.068918    1.615597   -1.989792
H     -5.147902    0.056941   -1.645357
H     -5.385191   -1.518707   -0.770386
H      6.260067   -2.650880    0.324935
H      4.132836    0.198613   -0.631907
H      4.116921   -1.481088   -0.076449
H     -1.176702    2.021219    0.525357
H     -1.885712   -1.640647    2.739702
H      0.555129    0.418677    0.047997
H      0.521305   -1.254710    0.584271
H      0.171145   -0.560967    2.939982
H      0.034473    1.546261    3.499640
H      2.241372    0.051659    3.777371
H      7.505222    0.595577    2.275883
