43

C     -4.882702    2.530768   -0.332288
C     -3.322023   -1.318756    0.094834
C      2.537881   -0.437334   -0.855036
C     -3.842232   -0.034575   -0.048806
C      3.643174    0.358142   -1.061097
C     -1.517780   -2.945678    0.325489
C      0.650786   -4.205349    0.861903
C      0.253496    2.284558    0.523283
C      4.290942    3.765732    0.054345
C     -1.945019   -1.546909    0.050465
C     -0.121681   -3.213793    0.103465
C      1.443958    0.162490   -0.261166
C      1.440697    1.493151    0.098879
C     -2.980859    1.027872   -0.232481
C      3.690447    1.693223   -0.709017
C     -1.104918   -0.486397   -0.140983
C      0.808656   -2.019393    0.028420
C      0.359019   -0.806428   -0.155098
C      2.554341    2.254892   -0.118590
C     -1.619652    0.817079   -0.274822
C      2.108405   -2.475766    0.553179
O      3.118536   -1.944347    1.034587
O     -3.502160    2.286338   -0.371007
O     -0.840115    1.995954   -0.428933
O      2.027734   -3.888907    0.417112
O      4.664345    2.684601   -0.806779
O      2.870664    3.608252    0.132579
H     -5.291019    2.533435    0.708786
H     -5.446212    1.805380   -0.966981
H     -5.089395    3.539207   -0.795441
H     -3.993491   -2.142044    0.241421
H      2.491375   -1.429634   -1.235274
H     -4.910533    0.072164   -0.009271
H      4.525562   -0.097986   -1.528273
H     -2.168419   -3.589472   -0.336219
H     -1.856721   -3.216805    1.368187
H      0.507463   -5.253631    0.564572
H      0.664603   -4.034880    1.949733
H      0.015484    2.117363    1.542879
H      0.441824    3.365288    0.345506
H      4.762847    3.542797    1.038349
H      4.566651    4.743163   -0.358248
H     -0.003961   -3.593763   -1.012161
