55

C     -3.956476    0.099947   -0.413000
C     -3.040313    2.293213   -0.914234
C      1.524111   -2.018014   -1.389012
C     -1.683820   -1.938700   -0.147073
C     -1.842497    0.863243    2.218237
C     -1.099516    0.559861   -1.743680
C     -2.937418    1.495506    1.385324
C     -1.588255   -0.571746    1.820971
C      0.149076   -0.179805   -2.089376
C      1.188177   -1.683703    1.146129
C      2.834091    0.951072   -1.726236
C      3.496557   -1.039527    2.354438
C      2.533657   -1.040511    1.372708
C      2.321938    0.124931   -0.841398
C      4.142174    1.550942   -1.413505
C     -1.466114    0.577975   -0.306839
C      0.424380   -0.663519    0.371783
C      3.032129   -0.183782    0.411430
C      4.238734    0.323068    0.778208
C      4.865498    1.248453   -0.160102
C     -2.858475    1.024433   -0.062784
C      1.032917   -0.591173   -1.009540
C     -1.060620   -0.704422    0.413805
N      4.524453   -0.208991    1.981626
O      4.641715    2.337289   -2.243486
O      5.977108    1.752446    0.114472
H     -3.747169   -0.590129   -1.230946
H     -4.371094   -0.421105    0.501302
H     -4.848246    0.703883   -0.764013
H     -2.096201    2.858146   -0.838116
H     -3.834715    2.932753   -0.502431
H     -3.218557    1.961319   -1.951625
H      2.492425   -2.251786   -0.953814
H      0.736389   -2.758748   -1.297996
H      1.730299   -1.933746   -2.499680
H     -2.692856   -2.119054    0.333599
H     -1.075842   -2.801806    0.260341
H     -1.806849   -1.987720   -1.221930
H     -2.217249    0.839899    3.262881
H     -0.910996    1.438038    2.219171
H     -1.013287    1.641890   -2.067057
H     -1.995400    0.199875   -2.313004
H     -2.786519    2.592002    1.459661
H     -3.951206    1.287183    1.789006
H     -0.937356   -1.004537    2.600326
H     -2.569115   -1.097995    1.933231
H      0.687343    0.403491   -2.855547
H     -0.205976   -1.070042   -2.710442
H      1.334267   -2.655238    0.645917
H      0.814230   -1.909636    2.153500
H      2.386958    1.229244   -2.658641
H      3.458945   -1.594338    3.266426
H     -0.820569    1.387159    0.162928
H      0.664856    0.330836    0.869752
H      5.400279    0.011679    2.498337
