108

C    -10.028025   -4.889293    2.197789
C     -9.527575    3.188048   -2.367770
C     -1.415240   -1.105796   -1.684102
C     -0.971465   -2.085047    0.514423
C      9.010955    3.111344   -0.151120
C      9.863371    1.313437    1.237006
C      2.537634    1.683425   -2.002312
C      3.084495   -0.530437   -2.819207
C      5.698386   -0.233171    1.507230
C      4.675550    1.991414    1.911359
C     -5.616576   -2.758039   -0.461459
C     -8.678684   -4.727899    1.537966
C     -8.509017    3.212134   -1.264438
C     -4.227921    3.014385    1.904049
C     -5.580474    2.786618    2.065968
C     -3.482661    2.004715    1.344215
C     -6.127666    1.583030    1.670873
C     -3.191320   -0.252388    0.364229
C     11.356088   -0.417449   -0.751515
C     -4.028730    0.800685    0.948901
C     -5.353658    0.566886    1.102825
C     11.045111   -1.816979   -0.257275
C     -8.358878   -0.986886    1.005197
C     -8.111241   -0.470909   -0.393075
C     -8.895810   -2.387170    0.968879
C     -8.739118    0.847811   -0.634201
C      9.323093    0.947551   -1.147889
C      0.464870   -0.313107   -0.307730
C      6.424531    1.726886    0.285019
C      3.418936   -0.029270   -0.495492
C     -0.949735   -0.810881   -0.275264
C      8.877883    1.626462    0.103241
C      2.446491    0.204538   -1.624827
C      5.196050    1.014139    0.844732
B     -6.102006   -0.726880    0.699233
N      9.835357   -2.247484   -0.398508
N     10.273850    0.204623   -1.331569
N     -1.827062    0.200656    0.278389
N      1.132057   -0.227491   -1.377785
N      7.565738    1.240822    0.470752
N      4.198151    0.873332   -0.124420
O     12.017421   -2.604861    0.323208
O     -9.981675   -2.687816    0.409693
O     -9.965807    1.060893   -0.511441
O      8.495862    1.225946   -2.287916
O      1.021984    0.056932    0.909931
O      6.261103    2.906062   -0.423524
O      3.382057   -1.298299    0.085112
O     -5.307815   -1.908726    0.586004
O     -8.186573   -3.414611    1.568587
O     -7.952480    1.930975   -1.019694
O     -7.167256   -0.964602    1.685221
O     -6.755758   -0.456467   -0.589298
H    -10.173073   -5.985463    2.383761
H    -10.109419   -4.385622    3.163890
H    -10.850884   -4.613164    1.476680
H    -10.481163    3.627523   -2.038104
H     -9.135946    3.849089   -3.195281
H     -9.653690    2.175489   -2.822962
H     -0.546609   -1.417557   -2.295591
H     -2.242028   -1.851388   -1.693809
H     -1.795582   -0.140688   -2.125326
H     -1.944543   -2.593270    0.249390
H     -0.881959   -1.934704    1.601016
H     -0.170690   -2.738938    0.104774
H      9.994894    3.451885    0.265938
H      8.253593    3.727088    0.365911
H      9.042397    3.331180   -1.261347
H      9.433911    1.712006    2.206285
H      9.960204    0.232494    1.409843
H     10.817269    1.854585    1.115121
H      1.941470    1.922922   -2.884373
H      2.310091    2.335791   -1.116648
H      3.604810    1.862326   -2.236703
H      2.820236   -1.602793   -2.806461
H      2.726832   -0.048364   -3.741074
H      4.202557   -0.473842   -2.743255
H      5.155787   -0.452930    2.450382
H      6.774089   -0.100525    1.855154
H      5.762928   -1.100759    0.815482
H      5.409484    2.070575    2.726293
H      4.559903    2.970413    1.381729
H      3.668318    1.682446    2.233870
H     -6.253754   -2.210569   -1.190649
H     -6.059211   -3.723940   -0.142953
H     -4.645019   -2.948357   -1.005910
H     -8.813732   -4.973333    0.443543
H     -7.984059   -5.433143    2.030222
H     -7.640838    3.885547   -1.515374
H     -8.979926    3.566418   -0.338036
H     -3.781331    3.950684    2.206604
H     -6.160686    3.595179    2.510498
H     -2.424982    2.189874    1.220339
H     -7.190997    1.475913    1.827624
H     -3.181893   -1.103982    1.112285
H     -3.568267   -0.702138   -0.567126
H     12.155461   -0.621526   -1.539747
H     11.908629    0.078759    0.066371
H     -9.165902   -0.369211    1.466245
H     -8.568896   -1.197798   -1.101619
H      9.090115   -1.691868   -0.823944
H      9.578568   -3.210207   -0.069100
H     -1.825432    1.037159   -0.345566
H     11.800091   -3.606346    0.380130
H      8.901552    1.134422   -3.200473
H      1.645168    0.863836    0.978030
H      6.714602    3.049739   -1.316424
H      3.430753   -1.372710    1.096447
