110

C     -1.002767   -1.824342    1.728813
C     -0.112336   -2.676804   -0.347802
C      8.063084   -0.722590    1.822484
C      8.835707   -1.533298   -0.373460
C      1.980611    1.588039   -1.257648
C      2.679912    0.794484    1.042641
C      6.463209    1.730586   -2.190898
C      4.936681    2.814478   -0.652540
C    -10.818529   -0.473928   -1.137942
C    -11.485350   -0.091062    1.228818
C     -9.246182    3.017116   -1.509194
C     -8.285636    2.309610    0.662820
C     -5.139221   -3.019096   -2.031673
C     -3.892245    0.273964    3.204305
C     -5.155614   -0.261815    3.322666
C     -3.234205    0.175426    2.012463
C     -5.743850   -0.889296    2.250752
C     -3.117204   -0.454050   -0.401457
C     12.013507    0.703438   -0.310283
C     -3.842133   -0.473747    0.920547
C     -5.094320   -1.013304    1.000825
C     12.979024   -0.425922   -0.737551
C     -8.115797   -1.274611   -0.166164
C     -7.181877   -0.076373   -0.496736
C     -9.214286   -0.915456    0.723390
C     -7.843364    0.911638   -1.321568
C      9.746180    0.575360    0.497601
C      0.241731   -0.332477    0.259356
C      6.527836    1.151293    0.126009
C      3.658552   -0.142207   -1.011081
C     -0.826567   -1.367989    0.236680
C      8.500597   -0.242320    0.461845
C      2.443119    0.450733   -0.412372
C      5.543259    1.508395   -0.972521
B     -5.844284   -1.770221   -0.139075
N     13.899783   -0.866950   -0.038283
N     10.724769    0.142058   -0.173918
N     -1.983337   -1.246337   -0.425629
N      1.351319   -0.521014   -0.395162
N      7.426023    0.355911   -0.182576
N      4.731617    0.391641   -1.141906
N    -10.475073   -0.501970    0.247435
N     -8.469452    2.041042   -0.745633
O     12.758930   -0.965976   -2.021082
O     -9.094376   -0.965148    1.970848
O     -7.868272    0.790575   -2.567120
O      9.852475    1.735216    1.207703
O      0.174996    0.861874    0.943420
O      6.363140    1.714883    1.359583
O      3.517740   -1.484316   -1.470009
O     -5.104742   -2.929714   -0.649911
O     -7.181564   -2.138410    0.388446
O     -6.208221   -0.838041   -1.207541
H     -1.986602   -2.292932    1.872631
H     -0.269210   -2.657363    1.951320
H     -0.732868   -1.029886    2.419948
H     -0.912934   -3.424692   -0.203583
H      0.733557   -2.928792    0.280304
H      0.055949   -2.510502   -1.405493
H      8.214855   -1.834625    1.932081
H      6.954451   -0.609727    1.940400
H      8.580809   -0.149160    2.586894
H      9.017830   -1.162950   -1.418196
H      7.975222   -2.199464   -0.404629
H      9.725772   -2.012905    0.026576
H      2.616195    1.630011   -2.202887
H      0.953107    1.448209   -1.682557
H      2.036183    2.567917   -0.761570
H      2.444055    1.815965    1.323008
H      3.783876    0.652371    1.247657
H      2.217666    0.038521    1.745916
H      7.050114    0.830708   -2.422045
H      5.883555    2.103037   -3.045742
H      7.181849    2.504758   -1.893322
H      4.412934    2.890098    0.291672
H      4.341320    3.156667   -1.554380
H      5.790067    3.566766   -0.598749
H    -11.933574   -0.660716   -1.272654
H    -10.613832    0.458566   -1.656534
H    -10.363408   -1.310331   -1.716839
H    -11.662249   -0.963710    1.926647
H    -11.150326    0.733667    1.853006
H    -12.473331    0.057440    0.744750
H    -10.328356    2.808194   -1.288584
H     -9.036360    4.035607   -1.149035
H     -9.020820    2.953526   -2.572279
H     -9.177233    2.701168    1.146491
H     -7.489505    3.124069    0.775012
H     -7.905944    1.490907    1.266253
H     -5.942016   -2.401253   -2.486618
H     -4.167594   -2.644840   -2.461550
H     -5.198067   -4.057925   -2.395575
H     -3.418063    0.776350    4.019247
H     -5.672379   -0.181074    4.265397
H     -2.269795    0.619090    1.827937
H     -6.712503   -1.356441    2.346372
H     -3.803648   -0.658666   -1.237621
H     -2.786732    0.619194   -0.595720
H     11.986080    1.443694   -1.154312
H     12.458762    1.133832    0.589827
H     -8.462421   -1.608456   -1.163012
H     -6.655601    0.267364    0.394846
H     13.778152   -0.163879    0.979711
H     14.629221   -1.365071    0.285228
H     -1.993920   -1.880111   -1.341044
H     13.145753   -1.848689   -2.290884
H     10.699922    2.304288    1.241802
H      0.205243    1.756216    0.497245
H      7.125130    1.762468    2.062666
H      4.308661   -1.935483   -1.948914
