110

C     -1.093277    1.469153   -0.301860
C     -2.381793    0.516367   -2.144364
C      7.980774    2.603514   -1.364920
C      8.760463    2.762952    0.997560
C      2.701571   -1.345798   -2.377266
C      2.638361    0.910806   -3.244668
C      4.943854    0.497327    1.655874
C      5.542138   -1.692373    0.797902
C     -9.063318    4.146564    0.747472
C     -8.965429    2.658539   -1.222902
C     -6.736290   -3.048660   -0.100077
C     -6.774266   -2.734162   -2.537633
C     -4.956423    1.081659    3.646294
C     -3.345938   -3.434306    2.531252
C     -4.551056   -3.297670    3.172752
C     -2.931319   -2.452365    1.630906
C     -5.306981   -2.183479    2.894798
C     -3.179193   -0.335855    0.407705
C      9.230838   -0.829770    1.205956
C     -3.682777   -1.331045    1.346511
C     -4.872267   -1.208054    1.985600
C      8.929451   -2.246705    0.779093
C     -6.536248    1.275557   -0.001166
C     -7.397049    0.047877    0.092142
C     -7.265777    2.415514    0.602519
C     -7.232703   -0.771013   -1.136749
C      9.471114    0.944249   -0.395537
C     -0.122130   -0.264061   -1.731308
C      6.422172    0.278339   -0.290041
C      3.262038    0.532090   -0.956970
C     -1.367586    0.201240   -1.062420
C      8.317897    1.781537   -0.094343
C      2.295250    0.051239   -2.030005
C      5.185736   -0.256428    0.366614
B     -5.830026   -0.009955    1.734032
N      9.204885   -2.613563   -0.418305
N      9.800329   -0.107367    0.158714
N     -1.896336   -0.772087   -0.116625
N      0.996008    0.262879   -1.556153
N      7.121033    1.140129    0.330906
N      4.129695   -0.249307   -0.557708
N     -8.402472    3.044943    0.049696
N     -6.928363   -2.133502   -1.188403
O      8.368457   -3.122245    1.671631
O     -6.836740    2.859655    1.698356
O     -7.386299   -0.174372   -2.270459
O     10.341913    1.374938   -1.450383
O     -0.237722   -1.356719   -2.602973
O      6.811027   -0.147628   -1.544929
O      3.119239    1.816402   -0.485096
O     -6.127596    0.713623    2.986309
O     -5.411221    0.927567    0.729096
O     -7.091359   -0.565959    1.264282
H     -0.862932    1.193763    0.752817
H     -0.250411    2.047424   -0.734868
H     -2.006868    2.121342   -0.216582
H     -3.221227    1.117623   -1.798183
H     -1.836274    1.100126   -2.927903
H     -2.671438   -0.446756   -2.598394
H      8.894833    3.245089   -1.534326
H      7.879373    1.896408   -2.183677
H      7.118855    3.242184   -1.162124
H      9.504735    2.297909    1.661720
H      7.882739    3.067241    1.589316
H      9.181352    3.640023    0.483940
H      2.507235   -2.100345   -1.603290
H      2.431667   -1.660306   -3.413783
H      3.844726   -1.316166   -2.430568
H      1.897882    0.846466   -4.042008
H      3.605702    0.544825   -3.628029
H      2.804884    1.932400   -2.866091
H      3.887079    0.416215    1.939977
H      5.334534    1.543279    1.623328
H      5.523423   -0.027251    2.467797
H      6.123095   -1.607135    1.731154
H      6.137071   -2.200182    0.047728
H      4.585667   -2.176987    1.065393
H    -10.102273    3.759502    0.948885
H     -8.590700    4.259503    1.743284
H     -9.081172    5.061280    0.144384
H     -8.180921    2.399325   -1.965604
H     -9.455038    3.577666   -1.679662
H     -9.780841    1.928485   -1.157187
H     -7.251628   -2.784143    0.826999
H     -5.617820   -3.164814    0.018372
H     -7.049850   -4.084234   -0.432703
H     -7.689714   -3.275055   -2.837343
H     -5.922585   -3.438679   -2.464553
H     -6.541267   -1.933656   -3.275433
H     -4.290990    0.200142    3.742458
H     -4.374300    1.835479    3.044758
H     -5.157886    1.445413    4.672367
H     -2.721232   -4.300794    2.723748
H     -4.908671   -4.046316    3.882851
H     -1.982984   -2.627521    1.165387
H     -6.254330   -2.068293    3.392431
H     -3.130385    0.699425    0.793821
H     -3.874215   -0.306802   -0.476798
H      9.984492   -0.979006    2.040345
H      8.383577   -0.329081    1.661293
H     -6.275801    1.493425   -1.071453
H     -8.489677    0.417217    0.122495
H      9.005840   -3.574055   -0.728962
H      9.631333   -1.935468   -1.074180
H     -1.194816   -0.878967    0.662388
H      8.258602   -4.099994    1.508995
H     11.155287    0.842687   -1.702468
H      0.346860   -2.167740   -2.494159
H      7.781270   -0.427808   -1.732448
H      3.411847    2.155474    0.392635
