62

C      8.216184    0.472437    1.190946
C      7.871937   -0.860606   -0.752788
C     -9.706622    1.994282    0.397920
C      6.394803    1.296610   -1.937725
C     -6.698226   -0.875262    0.274972
C     -7.686112    0.111467    0.283909
C      7.384584    1.483342   -0.811943
C      4.986984    1.118724   -1.397634
C     -5.587805    0.395522   -1.426583
C     -4.564973   -1.724433   -0.628406
C      1.462035   -1.350797   -0.096942
C      1.965619    0.032897    1.773333
C     -1.112929    0.135373    1.447263
C     -5.647735   -0.722593   -0.588234
C      1.104248   -0.793927    1.100354
C     -6.561039    1.358727   -1.411942
C      2.710403   -1.072442   -0.630236
C      3.206930    0.293312    1.216213
C     -3.338335   -1.106322   -0.023287
C     -0.222515   -1.095393    1.672963
C     -7.632835    1.209816   -0.535373
C      3.607048   -0.247041    0.012874
C     -3.375124   -0.651537    1.341659
Br    -6.449473    2.876726   -2.571714
Br     3.164243   -1.880603   -2.316080
Br     4.379651    1.442695    2.171732
N     -2.407386   -0.123187    1.945953
N     -2.295256   -1.017855   -0.784249
N      7.364042    0.279558    0.008397
O     -0.150135   -1.358730    3.047513
O     -4.560111   -0.787829    2.095199
O     -2.384100   -1.487138   -2.066740
O     -8.633759    2.164364   -0.494242
O      4.849547    0.015519   -0.540683
H      7.951321    1.467280    1.594835
H      9.278101    0.408035    0.958225
H      7.858413   -0.273842    1.934025
H      7.979985   -1.680776    0.017527
H      7.075299   -1.204510   -1.427042
H      8.818646   -0.651201   -1.258381
H     -9.349873    1.824507    1.449476
H    -10.354858    2.906606    0.349494
H    -10.331399    1.098394    0.162179
H      6.632799    0.411191   -2.541627
H      6.346859    2.227314   -2.557964
H     -6.766677   -1.739847    0.920010
H     -8.502069   -0.049814    0.985560
H      8.387518    1.653627   -1.246187
H      7.153331    2.379389   -0.205881
H      4.744208    2.039882   -0.806676
H      4.241926    1.047392   -2.197754
H     -4.754033    0.507781   -2.105594
H     -4.384716   -2.066725   -1.661404
H     -4.799994   -2.608343    0.012162
H      0.790453   -2.014561   -0.653843
H      1.699691    0.491474    2.735494
H     -0.660736    0.972563    2.064284
H     -1.022287    0.465410    0.403514
H     -0.630906   -1.994712    1.185335
H      0.066497   -2.323737    3.146070
H     -4.661278   -0.332201    2.982411
H     -2.460010   -2.486257   -2.278791
