39

C     -5.029341    1.756581   -0.627112
C     -5.668180   -0.290060    0.471701
C     -3.006026   -1.130670    0.626475
C     -3.364847    0.082360   -0.154398
C     -1.594959   -1.564007    0.241609
C      2.809845   -0.898162    1.150141
C      2.446234   -0.004748   -1.037791
C      5.667154   -0.304869    0.799214
C      3.312387   -0.449464   -0.030250
C      1.444101   -0.913165    1.350198
C      1.087368   -0.013191   -0.854948
C      4.749341   -0.385832   -0.359463
C      0.617779   -0.476543    0.358142
C      5.251319    1.758115    0.093537
Br     0.807051   -1.554245    3.027071
Br    -0.141149    0.577813   -2.184707
N      5.661278    1.102601    1.120579
N     -4.659243    0.608566    0.096072
O      5.136180    3.154258    0.096456
O     -0.743277   -0.489911    0.553579
O      4.955083    0.901043   -0.968523
H     -5.701973    2.385256    0.019908
H     -4.129853    2.376104   -0.820162
H     -5.507683    1.575183   -1.607549
H     -5.719453   -0.325915    1.599738
H     -5.555585   -1.332082    0.142625
H     -6.688227    0.030465    0.155848
H     -3.653131   -1.993381    0.466132
H     -2.936614   -0.874260    1.723032
H     -3.271181   -0.114681   -1.242882
H     -2.618197    0.881890    0.067519
H     -1.325651   -2.501722    0.748899
H     -1.574705   -1.728704   -0.875491
H      3.500451   -1.234736    1.908016
H      2.827830    0.355351   -1.982545
H      6.705925   -0.531721    0.418872
H      5.496630   -0.973713    1.631477
H      5.044690   -1.139384   -1.119880
H      5.368628    3.679581    0.945185
