102

C     -2.659914    0.213070   -2.424507
C     -1.967657    2.081459   -1.052090
C      8.275757   -0.077661   -1.622595
C      8.308505   -2.396541   -0.834590
C      2.391336    2.677107   -1.957127
C      2.262896    0.411803   -2.954241
C      3.677104   -2.302382    0.559386
C      4.554226   -0.227250    1.527577
C    -12.144928    0.723286    1.267383
C    -10.585022   -0.755269   -2.350291
C     -5.917282    2.826453    0.401033
C     -3.418625   -2.288204    3.102642
C     -4.664120   -2.095774    3.663659
C     -3.093545   -1.514859    2.007235
C     -5.554359   -1.153626    3.138454
C     -3.562572    0.204392    0.305120
C     10.673974   -1.043197    2.302836
C     -3.968000   -0.578558    1.478413
C     -5.206794   -0.390086    2.040931
C     11.708640   -0.067908    1.855305
C     -8.364320    0.934538    1.198841
C     -7.882962   -0.187279    0.302325
C     -9.719966    0.761716    1.721588
C     -8.610384   -0.284867   -0.973798
C      8.944241   -0.599922    0.701912
C     -0.335503    0.357754   -1.544372
C      5.617742   -1.223947   -0.461253
C      2.602238    0.689837   -0.525683
C     -1.780687    0.569614   -1.256411
C      8.032895   -0.970500   -0.408505
C      1.900658    1.236161   -1.752553
C      4.290185   -0.939054    0.224145
B     -6.157685    0.679637    1.423953
N     11.780972    1.076000    2.424696
N      9.791983   -1.415636    1.222984
N     -2.215019   -0.163935   -0.104321
N      0.504524    1.322304   -1.499686
N      6.693366   -0.816887    0.057746
N      3.464386   -0.216380   -0.654344
O     12.589670   -0.396026    0.827464
O    -10.022418    0.516378    2.916648
O     -8.016210    0.002313   -2.046479
O      8.890095    0.688316    1.213993
O      0.137023   -0.906278   -1.871188
O      5.578226   -1.925485   -1.636954
O      2.293946    1.189984    0.728004
O    -10.797699    0.873316    0.843991
O     -9.932079   -0.679530   -1.078764
O     -5.526490    2.003802    1.426501
O     -7.391627    0.830086    2.215855
O     -6.547103    0.230818    0.086912
H     -3.575673    0.857890   -2.373151
H     -2.957977   -0.853563   -2.335417
H     -2.145584    0.452248   -3.384812
H     -1.604375    2.407493   -0.071515
H     -3.053014    2.265532   -1.186455
H     -1.459757    2.639157   -1.876082
H      7.398855    0.542463   -1.880926
H      9.195122    0.553298   -1.458014
H      8.521905   -0.685286   -2.521069
H      8.608931   -2.445624   -1.909936
H      7.438415   -3.049483   -0.603397
H      9.181929   -2.762353   -0.263102
H      3.478929    2.702902   -2.050047
H      2.065279    3.319331   -1.115780
H      1.880835    3.074002   -2.858867
H      2.872967    1.039790   -3.664721
H      2.909590   -0.457249   -2.665185
H      1.386249    0.101171   -3.560952
H      3.693883   -2.962857   -0.342511
H      4.294849   -2.750427    1.369834
H      2.650854   -2.195693    0.914944
H      4.453927    0.860702    1.483563
H      3.930304   -0.614035    2.373840
H      5.645262   -0.414561    1.775363
H    -12.204223    0.624214    2.353516
H    -12.630627    1.711319    1.009433
H    -12.682183   -0.028630    0.678076
H    -10.070499   -1.430173   -3.040027
H    -11.593179   -1.175113   -2.147863
H    -10.732117    0.256955   -2.777594
H     -4.992426    3.389766    0.071927
H     -6.193752    2.227158   -0.488500
H     -6.640348    3.614958    0.665224
H     -2.720419   -3.030854    3.517199
H     -4.953427   -2.698442    4.538207
H     -2.095626   -1.681076    1.572109
H     -6.524862   -1.016739    3.591374
H     -3.495426    1.288661    0.553022
H     -4.278096    0.126701   -0.547365
H     11.205199   -1.984109    2.635739
H     10.072354   -0.647519    3.129358
H     -8.274096    1.868082    0.627359
H     -7.810951   -1.159930    0.852375
H     11.137370    1.320265    3.178978
H     12.490881    1.805634    2.152624
H     -2.284074   -1.170284   -0.388568
H     13.106827    0.348028    0.340949
H      8.996993    0.871964    2.216487
H      1.001816   -1.257181   -1.467785
H      6.326996   -1.843747   -2.341167
H      2.104572    0.562146    1.519919
