50

C     -4.107107    1.441931    1.296956
C      6.357335   -0.645699    0.831610
C      4.585216    1.982399   -1.066642
C      3.280094    2.350829   -1.308431
C      1.072651   -1.082013    1.274777
C      0.204984   -2.069320    0.537261
C     -3.541386   -0.739183   -0.855817
C     -1.738135    0.750752   -1.493703
C      3.790268    0.193265    0.271732
C     -1.269910   -1.706104   -1.353128
C     -3.955478   -0.004047    1.515403
C     -2.289879   -0.633540   -1.737199
C      4.861450    0.880731   -0.260161
C      1.235408    0.099732    0.399525
C     -3.114689   -0.763831    0.560833
C      2.467844    0.572308    0.022507
C     -1.250104    0.793891   -0.055261
C      2.209576    1.665464   -0.778105
C      0.245703    0.862401   -0.140415
C     -1.619987   -0.477447    0.678560
N      0.878415    1.829316   -0.868380
N     -0.981815   -1.568667    0.016588
O     -5.218743   -0.601466    1.537691
O      6.149516    0.480446    0.005523
H     -5.135652    1.742303    1.593562
H     -3.434874    2.082917    1.908282
H     -3.982350    1.782172    0.251904
H      7.449888   -0.801487    0.906980
H      5.897598   -0.438332    1.819438
H      5.897038   -1.510464    0.309305
H      5.429808    2.523187   -1.485103
H      3.124312    3.216576   -1.943626
H      2.057012   -1.590941    1.459274
H      0.669081   -0.825035    2.269881
H     -0.018717   -2.895242    1.264796
H      0.809825   -2.547329   -0.269377
H     -4.190778    0.092209   -1.148112
H     -4.055537   -1.674089   -1.196746
H     -2.572618    1.460970   -1.663546
H     -0.951686    0.954908   -2.225043
H      3.988236   -0.664965    0.900410
H     -1.760946   -2.679147   -1.549831
H     -0.424260   -1.583482   -2.040480
H     -3.533429   -0.166784    2.539646
H     -2.567511   -0.716368   -2.807469
H     -3.195960   -1.846556    0.892624
H     -1.560069    1.707807    0.464356
H     -1.321241   -0.402513    1.719657
H      0.397623    2.585015   -1.414893
H     -5.266021   -1.417477    0.980697
