59

C     -1.811199   -3.159628   -1.420284
C     -0.903838    3.765744   -0.466851
C     -4.137071   -0.940141   -0.602283
C     -3.780298    0.031989    1.670404
C     -3.446494    1.364195   -0.376565
C      5.658921    0.089037    1.344048
C      2.059677    1.413273   -0.226642
C      3.320174    1.603354   -0.925109
C      1.424384   -2.063216    0.277338
C      0.422856   -2.271484   -0.830665
C      1.237524    2.685583   -0.125732
C      2.789777   -1.777501   -0.292209
C      4.422002    0.960551   -0.602712
C     -1.551015   -1.751498    0.644534
C     -0.910637   -2.690624   -0.294561
C     -0.240406    2.414819   -0.302556
C     -1.808373   -0.357711    0.175076
C      3.529460   -0.974622    0.736325
C     -0.824620    1.805605    0.918430
C     -3.304494   -0.008874    0.254365
N      4.479326    0.018852    0.460510
O      3.268566   -1.221009    1.951592
O     -1.001196    2.610325    1.898116
O     -1.182384    0.512212    1.098600
H     -2.750511   -3.577789   -1.009061
H     -1.943150   -2.418800   -2.212726
H     -1.281355   -4.050139   -1.873487
H     -1.138028    4.159039    0.554645
H     -0.218480    4.513971   -0.915771
H     -1.852600    3.693403   -1.022464
H     -3.719439   -0.916382   -1.627557
H     -5.140701   -0.427026   -0.695307
H     -4.283484   -1.929564   -0.177689
H     -3.004911    0.469374    2.313014
H     -4.662354    0.735544    1.695329
H     -4.156874   -0.940884    2.034795
H     -4.495238    1.500884   -0.772141
H     -2.808755    1.430126   -1.294777
H     -3.231983    2.129857    0.370313
H      6.563683    0.084941    0.677542
H      5.691333   -0.754085    2.060090
H      5.663348    1.021686    1.902980
H      2.172338    1.034520    0.807905
H      1.381928    0.673666   -0.741563
H      3.372249    2.304083   -1.755996
H      1.101854   -1.125475    0.815396
H      1.467705   -2.919122    0.980151
H      0.423194   -1.394763   -1.463999
H      0.784833   -3.124753   -1.476698
H      1.446618    3.133913    0.859504
H      1.628026    3.387832   -0.884463
H      2.746648   -1.244339   -1.259318
H      3.334389   -2.730892   -0.462090
H      5.360584    1.146729   -1.173910
H     -0.964627   -1.787789    1.611089
H     -2.540321   -2.190062    0.935041
H     -0.698816   -3.631624    0.304123
H     -0.446617    1.827319   -1.214507
H     -1.511128   -0.142629   -0.851564
