58

C      5.046440    1.851037    1.326634
C     -6.717416    0.028399    0.352609
C     -2.200126   -0.752519    1.525450
C      0.318008   -0.358946   -2.224265
C     -1.474131   -2.329780   -0.752123
C      1.082839    2.125136   -0.508503
C     -0.343815    1.732596   -0.453108
C      3.868658   -1.273820    0.336731
C     -2.379843   -1.170588   -0.826233
C     -0.029035   -2.048760   -0.547628
C      2.722902   -1.324720   -0.639065
C      3.403573    1.510917   -0.417569
C      1.931120   -0.111853    1.197953
C     -3.000162    0.998254   -0.019208
C      3.959105    1.085992    0.694095
C     -5.274753    0.261131    0.774763
C      3.468917   -0.175673    1.295039
C      2.057226    1.071976   -0.900300
C     -0.576209    0.331025    0.044673
C     -1.998908   -0.071344    0.196570
C      0.318235   -0.598981   -0.705373
C      1.727490   -0.285447   -0.265655
O     -4.958550    0.024425    1.964267
O     -4.336954    0.703434   -0.060378
H      5.670369    1.236892    2.011602
H      5.771749    2.259112    0.565467
H      4.708207    2.722704    1.907881
H     -7.236130    0.979209    0.611635
H     -7.132442   -0.789736    0.962309
H     -6.713666   -0.153954   -0.723528
H     -2.903712   -1.576046    1.545378
H     -1.199041   -1.265798    1.791645
H     -2.364469   -0.074806    2.374081
H      0.183582    0.681212   -2.498557
H      1.309996   -0.772508   -2.582973
H     -0.413019   -1.055641   -2.731259
H     -1.695708   -2.971166   -1.657892
H     -1.784316   -3.012506    0.098325
H      1.439763    2.603046    0.431641
H      1.169544    2.948877   -1.280473
H     -0.906749    1.944819   -1.382197
H     -0.809321    2.413531    0.322704
H      4.085113   -2.211466    0.845983
H      4.785173   -0.998841   -0.239801
H     -2.593217   -0.744051   -1.811702
H     -3.391178   -1.515312   -0.444131
H      0.364948   -2.425262    0.429874
H      0.492235   -2.597713   -1.395651
H      2.249261   -2.333354   -0.449656
H      3.083185   -1.251568   -1.697060
H      3.940796    2.220609   -1.027639
H      1.723354    0.937841    1.568374
H      1.456684   -0.868261    1.828833
H     -2.853171    1.833392    0.765365
H     -2.815942    1.588546   -0.960656
H      3.794403   -0.345428    2.320422
H      2.120084    1.009493   -1.985760
H     -0.150976    0.362244    1.098044
