54

C     -4.197925    1.730237    1.520931
C      4.906801   -1.140034   -0.239511
C     -4.080121    0.592421   -2.227464
C      2.913659    1.541718   -2.133148
C     -1.157686   -2.877321   -0.805011
C      2.116900    2.045984    1.943903
C      0.127696   -2.408905    1.948764
C     -3.601891    2.085978    0.167547
C      3.771078   -0.943075   -1.201343
C     -2.922697    0.256618   -1.322242
C      2.281159    0.909862   -0.930691
C     -0.973740   -1.368315   -0.706573
C      1.011965    1.258039    1.213607
C     -0.135859   -0.940586    1.665763
C     -2.708105    0.955546   -0.211454
C      2.667930   -0.260330   -0.472728
C     -2.015159   -0.814456   -1.622414
C      1.202525    1.584938   -0.221229
C     -1.180800   -0.800199    0.632961
C      1.154249   -0.220890    1.496325
O     -2.118434   -1.339326   -2.795432
O      0.471606    2.402314   -0.795417
O     -1.613840    0.545174    0.530717
O      2.059737   -0.788583    0.621898
H     -5.283470    1.918631    1.559935
H     -4.070090    0.640593    1.750244
H     -3.699192    2.281498    2.322455
H      4.851058   -2.110064    0.310415
H      4.945377   -0.347027    0.546648
H      5.887322   -1.147661   -0.758907
H     -5.038580    0.543030   -1.641481
H     -3.940895    1.556430   -2.723892
H     -4.149935   -0.235596   -2.959706
H      2.763569    0.898918   -2.997506
H      4.011643    1.594946   -1.934676
H      2.558522    2.569359   -2.283105
H     -1.585913   -3.236292    0.127979
H     -1.875866   -3.158695   -1.606355
H     -0.221762   -3.401138   -1.071721
H      2.998131    1.368990    1.937103
H      2.391953    2.953116    1.391334
H      1.830667    2.267469    2.981171
H      0.809553   -2.426953    2.855575
H     -0.823683   -2.844145    2.349675
H      0.574351   -2.957156    1.123739
H     -3.038470    3.038072    0.254079
H     -4.395938    2.160051   -0.578782
H      3.437440   -1.976415   -1.509653
H      4.041068   -0.431644   -2.132493
H     -0.016203   -1.055854   -1.198800
H      0.068162    1.689897    1.629492
H     -0.581103   -0.546266    2.619667
H     -2.077496   -1.355500    1.062067
H      1.650731   -0.257400    2.517736
