59

C     -1.465299   -2.363173   -1.721560
C     -1.167700    4.102650    0.451383
C     -3.210270   -1.245945    1.470339
C     -3.908407    1.001117    0.826703
C     -1.970853    0.764666    2.290379
C      3.878133   -1.723565    1.405870
C      2.305396    2.707315   -0.362515
C      2.553539    1.219166   -0.496014
C      1.232430   -2.884063   -1.825524
C      0.629487   -2.768855   -0.476938
C      1.050082    2.948794    0.453740
C      2.416855   -1.981585   -2.088668
C      3.152512    0.344588    0.225257
C     -0.626581   -0.735703    0.000930
C     -0.759931   -2.165719   -0.431674
C     -0.138680    3.357065   -0.372739
C     -1.829517    0.120511   -0.141843
C      3.303806   -2.005172   -0.900814
C     -0.752322    2.217748   -1.117360
C     -2.703515    0.135736    1.124413
N      3.404474   -1.075068    0.129312
O      4.055088   -3.059918   -0.885664
O     -0.327483    2.162829   -2.336848
O     -1.620352    1.413853   -0.517194
H     -1.213118   -1.655484   -2.521663
H     -2.586641   -2.300953   -1.612430
H     -1.293745   -3.437482   -2.029301
H     -1.116245    5.204558    0.329003
H     -2.189062    3.805399    0.213093
H     -0.908917    3.935351    1.538665
H     -2.542227   -1.790531    2.166472
H     -4.186923   -1.175238    2.041523
H     -3.481766   -1.805408    0.559732
H     -4.759110    0.680839    1.475717
H     -3.667505    2.067824    0.943007
H     -4.227232    0.745711   -0.212892
H     -1.333986    0.029840    2.830103
H     -2.745688    1.113236    3.003125
H     -1.413326    1.624838    1.915688
H      4.912667   -1.411116    1.546732
H      3.210147   -1.279879    2.204045
H      3.708465   -2.777363    1.426526
H      3.084491    3.364849   -0.062881
H      2.023749    3.124031   -1.394943
H      2.007734    1.031260   -1.489183
H      1.606872   -3.940096   -1.982710
H      0.512943   -2.732699   -2.659407
H      1.303151   -2.164228    0.158477
H      0.638941   -3.786561    0.018454
H      1.253319    3.768419    1.177645
H      0.791737    2.064666    1.077793
H      3.003499   -2.471957   -2.927023
H      2.151802   -1.016633   -2.485448
H      3.665361    0.610981    1.241815
H     -0.274050   -0.737253    1.052285
H      0.193176   -0.245821   -0.595596
H     -1.300536   -2.722575    0.359573
H      0.222180    4.132056   -1.112599
H     -2.551052   -0.339853   -0.896369
