42

C     -3.442247   -3.673463   -0.465255
C      5.024300    2.006315    1.344087
C     -1.975097    4.178955    0.974408
C     -3.346852    4.036599    0.918518
C     -1.180251    3.105429    0.602336
C     -3.895735    2.846085    0.508313
C      5.148055   -1.443108   -0.291447
C      4.057025   -1.860699   -0.819605
C     -0.027889    0.117836   -0.194922
C     -3.204591   -2.353880   -1.210833
C     -1.775668    1.911914    0.193518
C     -1.278597    0.682992   -0.160485
C     -3.139295    1.741705    0.133778
C      0.291438   -1.173963   -0.451655
C      5.373849   -0.204519    0.400538
C     -2.070892   -1.559521   -0.699767
C     -2.320471   -0.204484   -0.422894
C      1.609321   -1.770767   -0.539147
N      2.836241   -1.087597   -0.771380
N     -3.474967    0.500345   -0.228503
N     -0.800318   -1.990352   -0.703713
O     -2.624057   -2.915333   -2.495399
O      6.589539   -0.063661    0.894325
O      1.708088   -3.016453   -0.405605
O      4.558291    0.853575    0.634673
H     -4.360677   -4.161723   -0.901728
H     -2.557813   -4.304221   -0.387497
H     -3.733370   -3.398272    0.607515
H      4.742702    1.919220    2.384624
H      4.590475    2.928576    0.923289
H      6.137492    2.100966    1.227448
H     -1.574331    5.117315    1.290207
H     -4.027929    4.838134    1.196330
H     -0.109529    3.219069    0.636761
H     -4.985199    2.691519    0.457984
H      6.022455   -2.145335   -0.368882
H      4.029438   -2.821386   -1.334115
H      0.808218    0.792702   -0.002517
H     -4.081739   -1.820279   -1.433017
H      2.852050   -0.076504   -0.901398
H     -4.381544    0.056545   -0.371255
H     -2.009919   -3.600276   -2.210515
