59

C     -1.636951   -3.339003   -0.039036
C     -0.696776    4.142212   -0.168865
C     -3.837421   -0.878505    0.563692
C     -3.280090    1.479435    0.749468
C     -3.961680    0.604318   -1.434708
C      5.148386   -0.746869   -0.939429
C      1.901367    2.208879    1.546910
C      2.748206    1.019676    1.247195
C      1.615024   -2.638392   -0.096581
C      0.336752   -1.917008    0.245390
C      1.412292    3.072010    0.438419
C      2.568422   -2.654082    1.077954
C      3.164852    0.372774    0.227185
C     -1.535582   -1.189559   -1.294468
C     -0.752861   -2.295054   -0.696042
C     -0.075291    2.801670    0.162457
C     -1.718727    0.038741   -0.457161
C      3.887322   -2.075140    0.616941
C     -0.207485    1.942527   -1.038954
C     -3.214124    0.283013   -0.175182
N      4.006792   -0.804846    0.028348
O      4.931150   -2.797676    0.782986
O      0.769225    1.998613   -1.859560
O     -1.314303    1.174188   -1.197354
H     -2.655654   -3.317333   -0.476075
H     -1.234552   -4.380110   -0.212966
H     -1.744558   -3.196567    1.048401
H      0.066459    4.705664   -0.758075
H     -1.581852    4.060978   -0.817886
H     -0.910461    4.739321    0.739343
H     -4.709742   -0.434811    1.129474
H     -4.305005   -1.618592   -0.114988
H     -3.177699   -1.295915    1.323018
H     -2.604251    1.262260    1.610093
H     -2.975864    2.396863    0.207787
H     -4.314295    1.581940    1.137912
H     -5.037170    0.316613   -1.246965
H     -3.948266    1.696865   -1.600633
H     -3.641977    0.013695   -2.302247
H      5.114088   -1.550843   -1.666572
H      6.105778   -0.723927   -0.374298
H      5.098027    0.198074   -1.515401
H      1.055625    1.952482    2.248888
H      2.487758    2.935436    2.222241
H      3.014613    0.737204    2.364104
H      1.433283   -3.660628   -0.491482
H      2.069687   -2.074624   -0.956298
H      0.062805   -2.230945    1.274499
H      0.556284   -0.832434    0.182583
H      1.532329    4.166338    0.665174
H      1.934590    2.900582   -0.544320
H      2.711974   -3.691984    1.369929
H      2.179480   -2.096931    1.947111
H      2.932008    0.631694   -0.880410
H     -1.133294   -0.893416   -2.307936
H     -2.560609   -1.596504   -1.545391
H     -0.272254   -2.850423   -1.559950
H     -0.544019    2.360721    1.065863
H     -1.261768   -0.012662    0.545870
