37

C      3.839822    0.549282    1.772077
C      3.410860    1.019986    0.419965
C      3.841699    0.088200   -0.686174
C      3.297177   -1.299588   -0.558548
C      1.787143   -1.372899   -0.573426
C      1.205330   -0.834022   -1.830992
C     -0.279440   -0.908024   -1.868111
C     -2.942150    0.608924    0.335851
C     -4.434550    0.460369    0.333704
C     -0.924834   -0.118485   -0.811685
C     -4.981026    1.297441    1.452434
N     -4.890847   -0.883272    0.532278
O     -0.302755    0.602970    0.005282
O     -5.704634    0.818034    2.361868
O     -4.690668    2.651553    1.505858
O     -2.330898   -0.145371   -0.672810
H      4.231080    1.383489    2.388126
H      2.970336    0.120055    2.346766
H      4.590146   -0.256800    1.673309
H      3.914438    2.006779    0.199066
H      2.338227    1.223104    0.373218
H      3.583685    0.488595   -1.680764
H      4.953195   -0.003955   -0.673734
H      3.684747   -1.737281    0.383123
H      3.699990   -1.895811   -1.390983
H      1.542935   -2.475457   -0.544648
H      1.319811   -0.936184    0.298056
H      1.638329   -1.329417   -2.732926
H      1.474170    0.254218   -1.947331
H     -0.672800   -0.609488   -2.871583
H     -0.558473   -1.990069   -1.758104
H     -2.581758    0.325278    1.347544
H     -2.705775    1.671035    0.160973
H     -4.848842    0.823576   -0.626236
H     -4.808223   -1.459704   -0.315976
H     -4.577220   -1.335060    1.397815
H     -5.088226    3.198000    2.256717
