66

C      5.742729   -4.209812   -3.725605
C     -4.935892    3.815922    0.275492
C    -10.408646    1.905267    1.082655
C      7.809863   -2.336821   -2.732311
C      7.335820   -1.048569   -4.671730
C      1.442502   -0.332960   -0.527840
C      2.860861   -0.858221    1.261512
C      1.199349    0.866464    2.917529
C      8.993954   -1.645511   -2.586079
C      8.526854   -0.353574   -4.525370
C      2.371651   -0.887871   -1.428854
C      3.772114   -1.402243    0.383156
C     -7.567522    0.412212    2.848435
C     -6.454925    0.681217    3.608735
C      0.357800    1.436225    3.824105
C     -6.814940    1.975045    1.171328
C     -0.630646    0.282074    1.543626
C      5.682054   -2.725473   -3.988092
C      6.963048   -2.051111   -3.773907
C      1.676708   -0.311875    0.823070
C      0.701106    0.278511    1.756129
C      9.357872   -0.656341   -3.474754
C      3.551493   -1.433298   -1.004343
C     -7.733533    1.060253    1.643513
C     -5.503953    1.604725    3.157833
C     -5.703033    2.236859    1.940013
C     -1.013595    1.419161    3.566389
C      4.549923   -2.078457   -3.207355
C     -3.184381    1.621655    3.573050
F     10.547717   -0.005983   -3.271807
N      4.556246   -2.012637   -1.819360
N     -4.372965    1.925366    3.933348
N     -2.040449    1.901539    4.277434
N     -2.788353    0.982063    2.468120
N     -1.466274    0.841119    2.431862
O      3.599326   -1.601852   -3.866338
O     -9.594884   -0.677504    0.782838
O     -8.730543    0.926192   -0.796991
O     -4.751311    3.146680    1.493896
S     -9.134110    0.745207    0.636053
H      6.376144   -4.652009   -4.516396
H      4.718686   -4.620975   -3.861701
H      6.145064   -4.420137   -2.715995
H     -5.704916    4.619240    0.362795
H     -3.936398    4.261602   -0.000622
H     -5.247707    3.149120   -0.564417
H    -10.203310    2.378370    2.060273
H    -10.445962    2.721067    0.315274
H    -11.415186    1.423940    1.121760
H      7.564741   -3.116627   -2.010887
H      6.687886   -0.798620   -5.508984
H      0.514290    0.090635   -0.905942
H      3.047242   -0.843010    2.341399
H      2.252381    0.869547    3.094365
H      9.681880   -1.867441   -1.755781
H      8.827924    0.428905   -5.217778
H      2.131755   -0.875347   -2.464421
H      4.696850   -1.826102    0.751892
H     -8.332949   -0.293120    3.153145
H     -6.298106    0.195163    4.548042
H      0.723710    1.908392    4.749753
H     -6.984476    2.470370    0.204396
H     -1.023071   -0.175249    0.641987
H      5.423271   -2.611765   -5.085307
H      5.421176   -2.453880   -1.357687
H     -3.389957    0.604288    1.677394
