37

C      4.751188    1.744346    0.862426
C      3.754035    0.881103    0.024833
C      4.179220   -0.545862    0.099060
C      3.414003   -1.524644   -0.667229
C      2.003160   -1.814593   -0.444699
C      0.956190   -0.791599   -0.619754
C     -0.386933   -1.537065   -0.350956
C     -3.197389    0.876377    0.557474
C     -4.477398    0.358665    0.008948
C     -1.513817   -0.577921   -0.505138
C     -5.529853    1.424599    0.145752
N     -4.383120   -0.046023   -1.344643
O     -1.871249   -0.303159   -1.673147
O     -6.172881    1.819177   -0.846863
O     -5.797254    1.980775    1.374064
O     -2.135853   -0.018183    0.564310
H      4.411502    1.776915    1.912698
H      4.755693    2.780715    0.484198
H      5.750670    1.248292    0.778124
H      2.791653    1.031138    0.532370
H      3.798371    1.303332   -0.977880
H      5.256255   -0.581205   -0.291980
H      4.313672   -0.857301    1.174934
H      3.550990   -1.331416   -1.805047
H      3.954042   -2.547753   -0.612258
H      1.740639   -2.685476   -1.148319
H      1.821119   -2.279783    0.582002
H      0.946694    0.001871    0.131627
H      0.879805   -0.359486   -1.630485
H     -0.321996   -1.949357    0.669632
H     -0.421523   -2.358380   -1.063903
H     -2.867606    1.739334   -0.099364
H     -3.349613    1.360429    1.556150
H     -4.846302   -0.530179    0.596876
H     -4.537958   -1.063179   -1.525366
H     -5.025271    0.471851   -2.003743
H     -6.192888    2.903647    1.506933
