55

C     -6.426467   -2.538746    0.286755
C     -6.062089   -1.079002    0.140552
C     -5.400640   -0.785919   -1.165404
C     -4.135191   -1.563654   -1.334093
C     -3.169132   -1.218612   -0.233530
C     -2.812179    0.267138   -0.235202
C     -1.823712    0.559278    0.897844
C     -1.498029    2.036699    0.857510
C     -0.548473    2.490124    1.889134
C      0.789089    1.909460    2.006695
C      1.787537    2.003341    0.918260
C      1.454400    1.345592   -0.359743
C      2.573283    1.468199   -1.390855
C      6.060850   -1.853711   -1.333009
C      5.159406   -0.553472    0.623041
C      5.658205   -1.838121    0.091420
C      3.834556    0.843745   -0.976392
O      5.049472   -1.733231   -2.257664
O      6.860317   -2.152364    0.832504
O      4.815110    1.036750   -1.774000
O      4.092318    0.104362    0.114834
H     -6.547336   -3.039831   -0.678039
H     -7.409425   -2.611006    0.813433
H     -5.669582   -3.037088    0.944628
H     -5.428870   -0.718150    0.962155
H     -7.011131   -0.476736    0.169178
H     -5.254524    0.288792   -1.288332
H     -6.117240   -1.107519   -1.974260
H     -4.286650   -2.653783   -1.305708
H     -3.617266   -1.286608   -2.294269
H     -3.547555   -1.463634    0.772083
H     -2.234073   -1.818029   -0.373854
H     -3.723427    0.871539   -0.100825
H     -2.383350    0.506495   -1.218802
H     -2.324949    0.360035    1.853687
H     -0.909175   -0.017282    0.758062
H     -1.356325    2.448083   -0.144608
H     -2.514463    2.509564    1.177698
H     -1.117456    2.438277    2.883590
H     -0.454915    3.625708    1.730946
H      1.228368    2.335498    2.981877
H      0.677918    0.814787    2.301045
H      2.750346    1.521506    1.290725
H      2.116920    3.074899    0.776068
H      1.214386    0.274107   -0.282493
H      0.604448    1.858580   -0.843874
H      2.769300    2.576043   -1.469074
H      2.173764    1.086977   -2.332841
H      6.639941   -2.774572   -1.612578
H      6.808268   -1.024198   -1.551182
H      6.067295    0.158197    0.774666
H      4.911994   -0.742924    1.734619
H      5.006176   -2.709616    0.350875
H      5.268006   -2.095653   -3.141398
H      7.411952   -1.335282    0.738146
