29

C     -2.636104   -0.156866    1.188292
C     -2.376363    0.286834   -1.191369
C      2.504698   -0.283085   -0.785534
C      0.398907    1.033447   -0.584444
C     -0.846509   -1.310456   -0.002955
C      1.013341   -0.319832   -0.748799
C      3.134652    0.263260    0.409232
C     -1.608187   -0.010825    0.086943
N     -0.687435    1.054333    0.371867
O      2.445941    0.657560    1.373022
O      4.508297    0.352860    0.492375
O      0.513178   -1.138145    0.264267
Cl     0.691196    0.000000    0.000000
H     -2.182071   -0.176536    2.192489
H     -3.388643    0.659381    1.092358
H     -3.178770   -1.107710    1.004854
H     -1.728935    0.533841   -2.034571
H     -2.986267   -0.608020   -1.467070
H     -3.059707    1.132657   -0.961979
H      2.918541   -1.288008   -0.973335
H      2.782209    0.376342   -1.659275
H      0.074850    1.376947   -1.588785
H      1.175901    1.745711   -0.254445
H     -1.287647   -2.103586    0.644194
H     -0.904869   -1.651892   -1.067090
H      0.680741   -0.809389   -1.710922
H     -0.291146    0.900494    1.317948
H      5.011400    0.590682    1.342336
H     -0.691196    0.000000    0.000000
