51

C      6.926663   -0.042656   -2.396087
C      7.770272    0.465001   -0.099456
C     -5.594852   -1.841025   -0.364403
C      5.203195   -1.126102   -0.131969
C      4.330224    1.082477   -0.334116
C      4.045036   -1.581079    0.406149
C      3.136736    0.605330    0.222673
C     -2.213845    0.272799    2.808588
C     -3.493795    0.832461    2.781378
C     -4.587392    0.107488   -1.585173
C     -4.675953    1.614956   -1.310461
C     -2.694431   -0.834282    0.783593
C      6.630295    0.682629   -1.092744
C      5.367832    0.200145   -0.509089
C      2.976918   -0.706485    0.594096
C     -1.801335   -0.572051    1.800986
C     -3.953162   -0.311505    0.714612
C     -4.355194    0.543877    1.745545
C     -6.091934    0.561809    0.177737
C      0.547723   -0.539884    1.151920
C     -5.081694   -0.444666   -0.267817
N     -5.995826    1.703430   -0.713175
N      1.785111   -1.209157    1.174859
N     -5.694429    0.984400    1.495127
O      0.343887    0.554200    0.625042
O     -0.536711   -1.160460    1.773636
H      5.993266   -0.562659   -2.708958
H      7.228213    0.662279   -3.196459
H      7.710247   -0.814691   -2.222251
H      8.480693    1.303100   -0.254801
H      7.301752    0.478393    0.910856
H      8.255004   -0.503806   -0.336556
H     -6.556318   -1.825864   -0.892636
H     -4.858324   -2.450017   -0.930179
H     -5.712560   -2.232498    0.669778
H      6.016441   -1.827263   -0.266625
H      4.417477    2.132808   -0.616788
H      3.880856   -2.611510    0.711153
H      2.350688    1.307240    0.358383
H     -1.553213    0.499455    3.611163
H     -3.801740    1.493560    3.580074
H     -3.538429   -0.184804   -1.730942
H     -5.252665   -0.164996   -2.427769
H     -3.876520    1.872383   -0.607073
H     -4.655654    2.192394   -2.247779
H     -2.366651   -1.504218   -0.014928
H      6.544228    1.761069   -1.316846
H     -7.133845    0.158881    0.162832
H     -6.689887    1.604310   -1.487939
H      1.844249   -2.150747    1.658591
H     -6.320646    1.525552    2.130964
