53

C     -3.276884    0.102672   -2.167850
C     -3.331437   -2.853757    1.621281
C      0.145542   -1.023055   -2.430348
C     -2.313282    0.782189   -1.219498
C     -3.271316   -1.697506    1.279957
C      5.079975   -0.234781   -0.435261
C      4.277295   -1.472734   -0.692857
C      4.421513    0.690100    0.280895
C      2.943312   -1.071438   -1.344046
C      2.405375    1.271834    1.608355
C      1.101940    1.830594    1.221605
C     -1.913967    1.575472    1.626978
C     -3.046448    0.626615    2.063573
C     -1.360444   -1.336496   -0.523403
C     -0.039085   -0.867830   -1.132172
C      3.042711    0.301977    0.671088
C      2.254929    0.047166   -0.595952
C      0.222786    1.021230    0.351183
C     -1.047458    0.574214    0.937153
C      0.883789   -0.275393   -0.162620
C     -1.993878   -0.049135   -0.024974
C     -3.189421   -0.300535    0.862458
O     -4.397724    0.044831    0.263856
H     -2.795219   -0.168702   -3.130244
H     -4.104410    0.814821   -2.462089
H     -3.696170   -0.843860   -1.770043
H     -3.403155   -3.882759    1.930215
H     -0.652004   -1.480243   -3.016981
H      1.023025   -0.731830   -2.983307
H     -1.381380    0.932098   -1.803276
H     -2.687831    1.802117   -0.988147
H      6.073254   -0.063109   -0.766647
H      4.134652   -2.103701    0.197368
H      4.804542   -2.128544   -1.441101
H      4.871916    1.627498    0.540269
H      3.268464   -0.736586   -2.366387
H      2.304639   -1.972892   -1.378423
H      3.147100    2.116174    1.742990
H      2.358683    0.824914    2.645973
H      0.528116    2.036201    2.176299
H      1.254320    2.877518    0.816902
H     -2.392228    2.311915    0.956744
H     -1.471253    2.074933    2.498749
H     -2.613242    0.046935    2.915870
H     -3.959994    1.162226    2.306193
H     -1.086898   -2.016298    0.308626
H     -1.971324   -1.810761   -1.301713
H      3.119812   -0.685129    1.186590
H      2.268588    0.938524   -1.263649
H      0.051785    1.617246   -0.584290
H     -0.805856   -0.205795    1.715325
H      0.940274   -0.970927    0.713598
H     -4.726029    0.931782    0.545185
