34

C      3.380092    0.502662   -0.924358
C      2.650355    2.115406    0.722346
C     -1.736999   -2.807686    0.291799
C     -3.115846    2.085674   -0.294469
C     -0.410260   -1.349941   -1.262906
C      0.973339   -0.689085   -1.260084
C      0.657123   -0.085187    1.153263
C      2.393576    0.973607   -0.195822
C     -0.616466   -1.852097    0.161344
C     -2.552229    1.061034    0.648825
C      1.035613    0.420487   -0.245342
C     -0.768590   -0.603161    1.005864
O     -3.054350    0.809719    1.746842
O     -1.436060    0.385575    0.262914
H      3.257356   -0.333707   -1.617866
H      4.357064    0.938383   -0.855449
H      1.741069    2.484960    1.206240
H      3.068338    2.950598    0.118917
H      3.370705    1.798810    1.528496
H     -2.273032   -3.004627   -0.669778
H     -2.467228   -2.482169    1.080635
H     -1.396113   -3.823315    0.640734
H     -3.961348    1.674011   -0.870310
H     -3.434117    2.972504    0.265611
H     -2.347970    2.412234   -1.022684
H     -1.138018   -0.533493   -1.466736
H     -0.421418   -2.146958   -2.003135
H      1.114522   -0.236142   -2.254006
H      1.686110   -1.498507   -1.045515
H      0.706632    0.780428    1.827454
H      1.334935   -0.899587    1.455345
H      0.340071   -2.396109    0.414821
H      0.298474    1.185318   -0.524324
H     -1.235331   -0.809639    1.981333
