49

C      5.359464   -0.552590    0.383705
C      4.749643    0.675790   -0.314417
C     -2.223139   -2.290297   -1.631078
C     -3.529785   -2.370020   -1.180528
C     -1.544958    2.835332   -0.508204
C     -0.669954    1.808599   -1.211926
C     -0.292403   -0.375812    1.894039
C      1.165234   -0.543428    1.660489
C      0.043082   -1.264953   -1.430765
C      2.891036   -1.107663    0.074484
C      3.938206   -0.151468    0.599475
C     -1.351432   -1.404166   -1.006406
C     -2.649806    2.057643    0.171793
C     -3.972425   -1.584420   -0.124637
C      0.793378   -0.187111   -0.718748
C     -1.835609   -0.669583    0.009869
C     -3.099480   -0.695875    0.502211
C     -2.133362    1.208349    1.296192
C     -1.037604    0.303549    0.778085
C     -0.083219    0.932313   -0.173807
F     -3.572820    2.971560    0.618775
N      1.608836   -0.606835    0.344305
O     -5.276569   -1.654306    0.337342
O      0.796178    1.728278    0.596381
O     -3.159672    0.221935    1.544102
H      6.165976   -0.301068    1.068934
H      5.536883   -1.464130   -0.236435
H      4.735480    0.578562   -1.402759
H      5.063594    1.676492    0.045395
H     -1.898775   -2.907597   -2.454053
H     -4.238314   -3.040178   -1.635606
H     -0.913973    3.283092    0.298288
H     -1.975967    3.581608   -1.170402
H      0.178247    2.416193   -1.643530
H     -1.172491    1.321427   -2.051691
H     -0.477561    0.238230    2.807372
H     -0.777694   -1.353949    2.085844
H      1.491645   -1.480628    2.204724
H      1.715058    0.272481    2.203947
H      0.056781   -1.125608   -2.542044
H      0.556835   -2.238314   -1.238428
H      3.061645   -2.068694    0.643576
H      3.082332   -1.380379   -0.980177
H      3.696802    0.283954    1.585133
H     -3.092561    1.387956   -0.593706
H      1.443413    0.310967   -1.493528
H     -1.869237    1.771124    2.187524
H     -5.591111   -1.088567    1.096878
H      0.310173    2.042204    1.387678
