49

C      4.453419   -1.817840   -0.098684
C      5.170958   -0.847673    0.790597
C     -1.076211    2.397420    1.939326
C     -2.312742    2.214825    2.521163
C     -2.260326    0.830089   -2.717390
C     -0.992343    1.282688   -2.103002
C     -0.536627   -1.669426    0.207937
C      0.861651   -1.440273    0.649198
C      0.659214    1.724063    0.255696
C      2.725373   -0.078461    0.755266
C      3.725557   -1.191962    1.023793
C     -0.631029    1.551610    0.935048
C     -3.199238    0.067469   -1.836170
C     -3.127720    1.168448    2.095574
C      0.953393    0.598997   -0.667639
C     -1.466417    0.555224    0.568800
C     -2.704799    0.314845    1.097650
C     -2.575999   -0.836606   -0.866680
C     -1.181796   -0.496066   -0.454098
C     -0.289974    0.128481   -1.444984
F     -4.121511   -0.567550   -2.640567
N      1.634675   -0.515840   -0.107950
O     -4.363584    0.976857    2.667995
O      0.155654   -0.807124   -2.351238
O     -3.226831   -0.794302    0.433032
H      4.235143   -1.520155   -1.152383
H      4.761767   -2.890163   -0.009337
H      5.441306    0.131184    0.338129
H      5.945235   -1.275052    1.474106
H     -0.398916    3.199308    2.231852
H     -2.626145    2.900472    3.307852
H     -2.015481    0.210263   -3.613034
H     -2.787043    1.734271   -3.131806
H     -0.317448    1.602814   -2.949671
H     -1.066955    2.125283   -1.419319
H     -1.160936   -1.884968    1.126472
H     -0.647118   -2.606635   -0.398659
H      1.389042   -2.437962    0.568513
H      0.895031   -1.233271    1.755640
H      1.493113    1.834367    0.968418
H      0.661016    2.665200   -0.379293
H      2.313436    0.206855    1.772544
H      3.251449    0.746972    0.260165
H      3.532587   -1.816088    1.945836
H     -3.784334    0.841874   -1.256831
H      1.625140    0.994543   -1.488635
H     -2.613939   -1.890271   -1.168700
H     -4.992764    0.252529    2.414184
H      0.594065   -1.536293   -1.848714
