53

C      6.649434    0.485037    1.178936
C     -5.289143   -2.195210    0.305634
C     -2.552338    2.935554   -1.488191
C     -2.054930    3.238302    0.873541
C      6.738493   -0.905797    0.583617
C      5.723582   -0.985567   -0.537590
C      4.317970   -0.741014   -0.030484
C      3.388592   -0.839700   -1.206056
C     -4.849772    0.117379   -0.406510
C     -4.105072    1.122848    0.435373
C     -3.039701   -1.244169    0.527218
C      1.205958   -1.709165   -0.508823
C      1.344961    0.601698   -0.875591
C     -4.279581   -1.274779   -0.348398
C      1.975425   -0.623208   -0.866036
C     -2.111421   -0.185768    0.130054
C     -2.668843    1.045572    0.083797
C     -0.131822   -1.605336   -0.172476
C      0.015111    0.771945   -0.550555
C     -0.707219   -0.361231   -0.198754
C     -1.927370    2.245990   -0.289668
O     -0.868817   -2.709936    0.176829
O     -0.594303    2.014597   -0.567974
H      6.122093    1.198334    0.513162
H      7.668810    0.881503    1.427680
H      6.089400    0.426366    2.120148
H     -4.918138   -2.569578    1.293685
H     -6.261914   -1.684732    0.472609
H     -5.503499   -3.093921   -0.302442
H     -3.654024    2.828356   -1.516312
H     -2.161507    2.526979   -2.443937
H     -2.351732    4.036210   -1.405669
H     -1.872915    4.269891    0.554379
H     -3.071505    3.197430    1.317437
H     -1.350059    2.942883    1.697982
H      7.745451   -1.013447    0.131120
H      6.611482   -1.704552    1.327402
H      6.025166   -0.256539   -1.318794
H      5.765758   -1.997457   -0.987533
H      4.302923    0.268455    0.421917
H      4.110264   -1.517500    0.722493
H      3.751930   -0.171947   -2.013225
H      3.502201   -1.884194   -1.613084
H     -4.797484    0.495744   -1.466728
H     -5.933690    0.087583   -0.163734
H     -4.334538    0.933894    1.492879
H     -4.525553    2.133770    0.191348
H     -3.498943   -0.831533    1.507432
H     -2.708815   -2.193486    0.872244
H      1.628961   -2.706822   -0.477281
H      1.934028    1.475576   -1.155359
H     -4.085056   -1.665311   -1.354441
H     -0.408287   -3.609999    0.184255
