37

C     -3.223693   -1.476204   -0.831096
C     -2.463900   -1.980315    0.359521
C     -4.059463    1.063042   -1.078683
C      1.703286   -0.685865    1.950024
C      4.857869    0.120233    0.829243
C     -3.401800   -0.017806   -0.574305
C      2.199409   -0.171880    0.779904
C     -3.746428    2.145674   -0.302230
C      5.650083    0.614672   -0.201426
C     -1.974872   -0.757765    1.059902
C      3.576981    0.151743    0.364420
C      0.328725   -0.885239    2.047906
C      1.407903    0.156053   -0.300079
C     -0.502011   -0.571588    0.993233
C      0.064067   -0.057298   -0.156782
C     -2.895520    1.678802    0.663359
C      4.855568    0.941302   -1.277170
C      2.253106    0.677552   -1.382953
Cl    -4.293278    3.807982   -0.463277
Cl     7.386928    0.793184   -0.140734
Cl    -2.196332    2.697600    1.929632
Cl     5.387062    1.599878   -2.805927
N     -2.693013    0.371475    0.491420
N      3.585368    0.641236   -0.888571
O     -0.170688   -1.409717    3.239187
O     -0.748135    0.266366   -1.232046
O      1.816865    1.059473   -2.493300
H     -2.646699   -1.652575   -1.768426
H     -4.209579   -1.984092   -0.908913
H     -1.622783   -2.667364    0.080817
H     -3.141371   -2.603479    1.012377
H     -4.725780    1.120420   -1.939032
H      2.295997   -0.951189    2.808757
H      5.173038   -0.222672    1.804067
H     -2.287090   -0.839213    2.119735
H     -1.097190   -1.613756    3.465471
H     -0.442628    0.641327   -2.102931
