35

C      2.452554    0.894759   -0.947469
C      3.025762    1.286317    0.397153
C     -1.965632   -0.580535   -1.063368
C     -1.670625   -0.269399    1.466714
C     -3.531903    0.718826    1.875315
C     -2.347192   -0.151426    0.275361
C     -0.632946   -1.248222   -1.185656
C      0.968236    0.612606   -0.809698
C     -0.559490   -2.488715   -0.349876
N      4.427347    1.547208    0.240199
N     -2.415539    0.276237    2.464190
N     -3.501025    0.469153    0.572805
N      0.517811   -0.479922   -1.107591
O      0.199761    1.657032   -0.336667
O     -1.527629   -3.263826   -0.314665
O      0.576231   -2.773546    0.379086
N     -0.401581    0.045521    0.113617
O      0.919468   -0.167056    0.332107
O     -1.213793   -1.024805   -0.086529
O     -0.869945    1.182580    0.094321
H      2.648848    1.713476   -1.664550
H      2.959581    0.000385   -1.354161
H      2.552056    2.213204    0.771546
H      2.833077    0.444510    1.117853
H     -2.728642   -1.303905   -1.463671
H     -1.975402    0.285888   -1.752548
H     -0.719694   -0.706272    1.633183
H     -4.350901    1.216741    2.405410
H     -0.657113   -1.689526   -2.248728
H      4.965448    1.248291    1.100003
H      4.835711    1.096709   -0.608476
H     -4.279068    0.731444   -0.094025
H     -0.672581    1.939370   -0.742901
H      0.572963   -3.396861    1.195552
H      1.565851   -0.036240   -0.453517
