34

C     -0.038108    2.135743    1.681840
C     -1.126342    2.814209   -0.343678
C     -2.643173   -1.958044   -1.079357
C     -1.605540   -1.059675   -1.210544
C     -3.262282   -2.116658    0.157307
C     -1.794713   -0.495501    1.046702
C      1.438102   -0.939779   -1.371235
C      1.676849   -0.670263    1.019516
C      3.451919   -1.294342   -0.320746
C     -1.135988   -0.288206   -0.150556
C      1.346511    0.070781   -0.218364
C     -0.018867    0.684552   -0.289949
N     -2.813795   -1.380603    1.167437
N     -0.199557    1.935333    0.329522
O      2.767371   -1.398375   -1.509924
O      2.598346   -1.697022    0.692483
H      0.405956    1.373856    2.304973
H     -1.041584    2.370756    2.154557
H      0.538210    3.098221    1.842192
H     -2.102931    2.298945   -0.494652
H     -0.662181    3.089017   -1.324088
H     -1.249192    3.709490    0.310074
H     -3.008205   -2.557193   -1.901954
H     -1.155351   -0.971339   -2.191156
H     -4.075377   -2.818853    0.261336
H     -1.532972    0.036797    1.950279
H      0.809814   -1.806009   -1.089705
H      1.185296   -0.480950   -2.334316
H      2.250490   -0.027412    1.721634
H      0.823255   -1.189893    1.451460
H      4.286538   -2.023762   -0.336799
H      3.900265   -0.296319   -0.153580
H      2.078841    0.889004   -0.367553
H     -0.091604    0.963495   -1.403154
