39

C     -3.078689   -0.484806   -0.732038
C     -4.149991   -0.735184    0.099156
C     -2.381430    1.297192    0.688012
C      1.321512   -2.010727   -1.972613
C      3.378486   -1.669115   -0.789748
C      0.891779    1.009777    0.149441
C     -2.177401    0.544360   -0.439879
C      2.618545   -2.392090   -1.684055
C      1.534631   -0.178799   -0.473339
C     -4.333175    0.029869    1.219812
C     -3.464223    1.048350    1.533251
C      0.031836    1.621064   -0.968328
C      0.757633   -0.887669   -1.364513
C      2.827146   -0.558145   -0.185277
C     -1.083022    0.741874   -1.360378
O      3.093422   -3.521921   -2.337201
O     -5.413699   -0.194287    2.092541
O     -3.581499    1.858990    2.639332
O     -0.265059    2.941896   -0.748435
O      4.203387    1.341602    3.096407
O      4.587666   -1.167455    2.755352
O      2.258419   -0.318995    2.970105
O     -0.542661   -0.537166   -1.678341
O      3.567021    0.183407    0.714285
S      3.629052   -0.079072    2.368699
H     -2.954938   -1.099276   -1.607368
H     -4.867566   -1.518664   -0.089954
H     -1.673145    2.078787    0.883993
H      0.706586   -2.560182   -2.669022
H      4.404497   -2.002919   -0.586108
H      1.657884    1.780454    0.405200
H      0.291072    0.718861    1.024053
H      0.745358    1.627676   -1.852088
H     -1.489341    1.128089   -2.340611
H      4.049417   -3.839307   -2.152326
H     -6.049632   -0.934524    1.869448
H     -4.306341    1.792540    3.326423
H      0.275650    3.262862    0.025892
H      4.980814    1.682652    2.561360
