40

C     -4.430632   -1.369937   -1.158642
C      4.654837   -2.129594   -0.549804
C     -2.580795   -1.884928    0.454005
C     -1.332158   -1.079728    0.844712
C      2.294211   -1.396751   -0.764603
C      0.915294    2.750159   -0.738607
C     -3.309184   -0.801462   -0.347715
C      3.524642   -1.237634   -0.149524
C      0.635130    2.751355    0.769891
C     -0.203440    1.891560   -1.215359
C      1.229434   -0.588975   -0.417765
C      0.284974    1.291589    0.972205
C      1.372584    0.391946    0.548642
C     -0.831594    1.169646   -0.075990
C      2.646943    0.483639    1.117703
C     -1.139907   -0.255524   -0.397653
O     -0.510460    3.495973    0.964425
O     -0.543723    1.803579   -2.376395
O      2.900476    1.334893    2.005445
O      3.628014   -0.309415    0.752783
O     -2.283486   -0.322216   -1.145885
O      0.000004   -0.792274   -1.073527
H     -4.655869   -0.641247   -1.981300
H     -5.334005   -1.391729   -0.513150
H     -4.190761   -2.353523   -1.572649
H      5.496616   -2.027206    0.155044
H      4.267014   -3.180513   -0.486652
H      4.950466   -1.973316   -1.598879
H     -3.143019   -2.216270    1.322525
H     -2.244103   -2.678912   -0.228948
H     -1.644169   -0.455156    1.707239
H     -0.485320   -1.736186    1.071773
H      2.214007   -2.173468   -1.517251
H      0.881965    3.768941   -1.157919
H      1.902824    2.261122   -0.863223
H     -3.663531   -0.056499    0.402008
H      1.494523    3.084168    1.346520
H     -0.100382    1.085469    1.983332
H     -1.701854    1.725173    0.324797
H     -0.965570    3.763253    0.138648
