39

C      1.928746    1.181651    0.839353
C      3.268395    0.956437    1.036845
C      1.569347   -1.036362    0.107996
C     -5.286973   -0.003742    0.390569
C     -3.455519   -1.044122    1.435581
C     -2.154086    1.344359   -1.235713
C      1.055375    0.204282    0.375881
C     -4.819204   -0.888155    1.330014
C     -3.044054    0.572124   -0.342068
C     -4.428880    0.726275   -0.443538
C      2.926969   -1.275098    0.305005
C     -0.777134    0.717889   -1.242296
C      3.780055   -0.294057    0.765563
C     -2.608371   -0.325549    0.614293
C     -0.355166    0.543116    0.198597
O     -5.701660   -1.604960    2.150607
O     -4.944573    1.603137   -1.369190
O      3.413178   -2.547489    0.022175
O     -0.918487   -0.559352   -1.800923
O      5.659020    0.308333   -1.649396
O      7.429686    0.478533    0.288648
O      6.873813   -1.713079   -0.588401
O     -1.211479   -0.486920    0.726672
O      5.131799   -0.571062    0.950017
S      6.298062   -0.362144   -0.250985
H      1.565364    2.184762    1.066261
H      3.951695    1.710524    1.396293
H      0.945669   -1.838596   -0.253812
H     -6.352752    0.134000    0.291067
H     -3.079711   -1.730172    2.164043
H     -2.545530    1.456489   -2.271881
H     -2.008344    2.396087   -0.857381
H     -0.048563    1.330059   -1.816284
H     -0.595734    1.506120    0.711478
H     -6.015479   -2.510593    1.794979
H     -4.359139    2.138966   -1.963519
H      4.394035   -2.754908    0.154109
H     -1.186970   -1.243497   -1.170118
H      5.706601    1.296714   -1.568044
