41

C     -5.029114    1.116518   -0.262635
C     -2.261309    1.743294   -1.322303
C     -2.186910   -2.844939    0.163579
C      5.993397    0.873876   -0.600611
C      5.778857   -0.262459    0.155503
C      4.902757    1.658433   -0.916584
C      4.501096   -0.578919    0.568693
C      3.627935    1.335403   -0.499717
C     -3.776868   -0.949575    0.405931
C      1.806152   -0.564575    2.005497
C     -3.794499    0.315877    0.000807
C     -2.387054    0.803390   -0.146902
C      3.404356    0.197069    0.259168
C      2.044515   -0.157368    0.710105
C     -0.297754   -0.443318    0.343075
C     -1.620418   -0.472194   -0.315373
C      0.964538   -0.095613   -0.141596
C     -0.494726   -0.845345    1.643819
C     -2.397254   -1.425568    0.566289
N      0.582347   -0.894692    2.450340
O      1.154334    0.310638   -1.462517
O     -1.861096   -1.133800    1.855804
H     -5.382043    1.015432   -1.304670
H     -4.826090    2.182208   -0.080363
H     -5.799467    0.753572    0.452841
H     -2.764932    1.346082   -2.218229
H     -1.219114    2.026691   -1.450998
H     -2.805704    2.682862   -1.015416
H     -1.254145   -3.209062    0.624319
H     -3.018624   -3.486441    0.507296
H     -2.042117   -2.905646   -0.942223
H      7.000306    1.119055   -0.923553
H      6.614969   -0.907054    0.425088
H      5.034480    2.545686   -1.501004
H      4.313415   -1.478741    1.170397
H      2.763021    1.954230   -0.748169
H     -4.661036   -1.548400    0.592458
H      2.689532   -0.603558    2.661754
H     -2.104138    1.281020    0.804589
H     -1.570219   -0.818454   -1.364652
H      0.378622    0.364386   -2.109801
