41

C     -1.163139    2.616998   -0.781571
C     -4.188215   -2.904558    0.277928
C     -2.853099   -3.165951    0.138036
C     -4.692794   -1.619962    0.185308
C     -1.952545   -2.127133   -0.105861
C     -3.410107    1.725200   -0.372129
C     -4.278644    0.716247   -0.145181
C      0.672166    0.118431    0.722820
C     -0.094206   -0.077873   -0.559097
C      2.848857    0.689041   -0.421978
C      4.976956    0.279508    0.841387
C     -2.043486    1.469660   -0.518130
C     -3.805111   -0.578966   -0.057548
C      4.289436    0.229816   -0.495738
C      2.115582   -0.163028    0.584538
C     -1.534530    0.193035   -0.436710
C     -2.444889   -0.839400   -0.201102
C      3.986762    0.752136    1.847095
O      4.292621   -1.071013   -1.011730
O      4.256446    1.692962    2.649020
O      2.752511    0.092401    1.843703
H     -0.496198    2.455128   -1.653745
H     -1.805892    3.495202   -1.108796
H     -0.614624    2.959823    0.106895
H     -4.887953   -3.715783    0.466490
H     -2.422204   -4.161020    0.204831
H     -5.751780   -1.429770    0.298855
H     -0.902608   -2.349261   -0.202850
H     -3.816374    2.738791   -0.435677
H     -5.363273    0.872809   -0.023989
H      0.463807    1.131003    1.100078
H      0.286363   -0.562447    1.535577
H      0.384744    0.703129   -1.261743
H      0.068743   -1.006019   -1.084754
H      2.883289    1.740714   -0.068095
H      2.451365    0.578502   -1.451858
H      5.890139    0.894264    0.809472
H      5.304745   -0.751205    1.094220
H      4.825980    0.868418   -1.209269
H      2.348020   -1.220754    0.347937
H      3.423137   -1.269071   -1.446641
