37

C     -2.028344   -0.986810    1.612153
C     -2.366358   -1.504689   -0.713117
C      0.531651    1.175705   -1.521313
C     -1.436451    1.964124    0.436989
C     -2.220702    0.804311   -0.014629
C     -0.032913    1.683699    0.868505
C      1.888384   -1.661974   -1.016353
C      3.875497   -0.617631    0.248057
C      2.936118    1.179980    0.970667
C      2.587690   -0.644660   -0.197018
C      1.989933    0.500095    0.263303
C      0.409549   -1.509379   -0.955539
C     -0.137943   -0.620468    0.095696
C     -1.599637   -0.549466    0.201855
C      0.557645    0.713728   -0.091416
O     -0.215454   -2.133594   -1.781039
O      4.040197    0.474750    0.932493
H     -2.298062   -2.060695    1.637818
H     -2.824667   -0.360106    2.016655
H     -1.127641   -0.903515    2.288758
H     -2.347599   -1.192647   -1.761547
H     -3.449707   -1.393422   -0.398633
H     -2.128717   -2.556540   -0.519196
H      0.731787    0.287658   -2.166021
H     -0.344126    1.750127   -1.803987
H      1.434575    1.837981   -1.658420
H     -1.372193    2.762091   -0.361669
H     -1.933585    2.503184    1.297730
H     -2.486229    0.941385   -1.085691
H     -3.220308    0.825881    0.516516
H     -0.067314    1.206060    1.866921
H      0.507204    2.655510    0.896030
H      2.185661   -2.655541   -0.616383
H      2.241105   -1.648934   -2.079881
H      4.641237   -1.385347    0.061029
H      2.773973    2.142610    1.471324
H      0.305742   -1.023463    1.059353
