37

C     -2.340948    1.629069   -0.434455
C     -2.333766    0.141042    1.465130
C      0.908039   -0.306649   -1.826475
C     -1.428178   -1.998144   -0.210206
C     -2.085259   -0.768311   -0.748424
C      0.054686   -1.933190   -0.163483
C      1.848883    2.000381    0.197998
C      3.727741    0.465457    1.138988
C      2.855736   -1.465287    0.736854
C      2.513095    0.726857    0.540162
C      1.970823   -0.517021    0.290663
C      0.419452    1.794225   -0.190554
C     -0.188561    0.530374    0.270410
C     -1.639476    0.405212    0.114575
C      0.634005   -0.570479   -0.363592
O     -0.100041    2.655558   -0.830283
O      3.896534   -0.853253    1.239010
H     -2.195504    2.527846    0.194204
H     -2.162297    1.791145   -1.506028
H     -3.445603    1.399370   -0.351365
H     -1.613042   -0.446901    2.073560
H     -2.495143    1.091214    2.007063
H     -3.300350   -0.350215    1.334409
H      0.166280    0.365217   -2.289759
H      1.914310    0.081355   -2.032992
H      0.840770   -1.288979   -2.356775
H     -1.790573   -2.116968    0.853864
H     -1.810678   -2.923091   -0.724154
H     -3.193672   -0.873133   -0.553809
H     -1.976931   -0.598091   -1.809609
H      0.477878   -2.352114    0.782095
H      0.458099   -2.592213   -0.979788
H      1.807324    2.627925    1.136661
H      2.405677    2.604166   -0.536050
H      4.450925    1.170620    1.484235
H      2.695885   -2.527853    0.672421
H      0.053879    0.474860    1.375497
