90

C      7.099812   -4.003320   -0.088451
C     -3.896204    4.025731   -1.836509
C      6.037034    4.612164   -2.659634
C     -8.659977   -2.137851    1.021187
C     -1.384738   -1.726933    0.732070
C     -6.071529   -0.200421    4.875852
C      5.752709    1.092232   -0.600434
C      6.847504   -0.049676   -2.227382
C     -1.586280    1.778927    2.168693
C      5.904846    2.169947   -1.416546
C      7.055015    0.958395   -3.119590
C     -0.579732    1.177038    2.855334
C     -6.402997    1.309414   -1.809996
C      3.641506   -4.616406    0.602847
C      5.049468   -4.422113    1.057852
C     -5.482132    2.338761   -2.286794
C      6.242891   -1.276064   -0.173265
C     -2.966765    2.719842    0.256807
C     -0.907740    1.419455    0.019695
C     -7.042076    0.009191    0.207911
C      1.806539   -2.976521    0.455031
C     -5.185342    1.128750    1.767688
C      3.207251   -0.989732   -0.520619
C      6.260202   -0.121702   -1.016190
C     -1.885972    1.971134    0.938390
C     -6.166847    0.896079   -0.401432
C      3.070422   -3.319781    0.318477
C      6.527836    2.218298   -2.671528
C     -5.207272    1.442204    0.411970
C      3.887780   -2.191091   -0.234626
C      5.296940   -2.406992   -0.342561
C     -4.129907    2.134285   -0.332240
C      0.456033    0.601784    1.824191
C      0.226804    0.760536    0.692484
C     -7.063637   -0.368342    1.431146
C      1.136150   -1.844964    0.202761
C     -6.058372    0.241184    2.388723
C      1.910587   -0.656923   -0.373412
N      5.822183   -3.499414    0.412907
N     -4.815173    3.078377   -1.216898
O      1.438351    0.009180    2.678290
O      6.529619    3.463571   -3.248852
O     -7.905374   -1.343893    1.862425
O     -0.128146   -1.739454    0.450586
O     -6.247694   -0.193366    3.498864
O      1.085438    0.296471   -0.529212
H      6.969701   -5.105618   -0.199783
H      7.845564   -3.797061    0.688004
H      7.320289   -3.465704   -1.014830
H     -3.085206    3.543399   -2.389648
H     -3.650099    4.818565   -1.122208
H     -4.546139    4.545755   -2.623945
H      6.187751    4.638118   -1.579714
H      4.974278    4.847497   -2.983160
H      6.680011    5.492016   -3.039140
H     -9.665482   -1.846714    0.842083
H     -8.091781   -2.207757    0.002129
H     -8.591872   -3.190524    1.390927
H     -1.562192   -1.490351    1.873214
H     -2.130410   -1.102394    0.245850
H     -1.884450   -2.793311    0.703059
H     -6.114942   -1.307402    5.152453
H     -6.744159    0.419655    5.480006
H     -4.997554    0.106508    5.144514
H      5.238686    1.247762    0.357300
H      7.247094   -1.077615   -2.564691
H     -2.300500    2.349337    2.897685
H      5.456996    3.118360   -1.054087
H      7.526447    0.979366   -4.047943
H     -0.393745    1.046459    3.833857
H     -7.444532    1.814203   -1.755004
H     -6.477534    0.410075   -2.415678
H      3.065913   -5.094505    1.464978
H      3.530767   -5.331503   -0.272008
H      5.527293   -5.462248    1.110400
H      4.970386   -4.164717    2.164893
H     -6.065026    3.133977   -2.872352
H     -4.738141    1.931656   -3.045907
H      7.305035   -1.731711   -0.113434
H      6.176036   -0.871055    0.907009
H     -3.364788    3.504479    1.023310
H     -2.414008    3.407395   -0.484572
H     -0.964827    1.459492   -0.989585
H     -7.824297   -0.371454   -0.532854
H      1.174585   -3.829618    0.974280
H     -4.464217    1.677605    2.384027
H      3.825224   -0.231988   -1.028245
H      5.440156   -2.776500   -1.428268
H     -3.770377    1.344759   -1.149587
H      2.305049   -0.354676    2.269059
