51

C     -0.260987    3.126579    1.446638
C     -6.176878    0.142865   -1.246066
C     -2.333790   -2.693074    1.673531
C      1.426795   -0.505591   -0.692633
C      2.383151   -2.280379    0.780352
C      1.172200    0.726423    0.145580
C      3.481840   -2.974274    1.238780
C     -1.863497    2.806942   -1.674470
C     -1.036749    3.602112   -0.696846
C      3.870168   -1.007864   -0.617669
C     -3.565865    1.097965   -1.101980
C     -1.620655   -0.250194    0.315535
C      6.995880   -2.489665    0.414589
C      2.598531   -1.285302   -0.162378
C     -2.305139    1.564263   -1.038934
C     -1.284171    0.886856   -0.315520
C      0.045155    1.521522   -0.326748
C      4.768225   -2.728443    0.809753
C     -3.891851   -0.090611   -0.436954
C     -2.929994   -0.763328    0.268221
C      4.930588   -1.732444   -0.125086
N     -0.038741    2.910266    0.038163
O     -5.188757   -0.533158   -0.527232
O     -3.222603   -1.918714    0.922004
O      6.011162   -3.254191    1.091618
O      6.277800   -1.612838   -0.448767
H      0.374189    3.984432    1.749404
H     -1.310074    3.419548    1.672515
H     -0.004972    2.286170    2.088968
H     -6.441925    1.074449   -0.719283
H     -7.058925   -0.549464   -1.325624
H     -5.819746    0.343517   -2.282571
H     -1.996100   -2.128520    2.563312
H     -1.402284   -2.797169    1.042940
H     -2.681218   -3.708058    1.876479
H      1.773498   -0.144971   -1.705544
H      0.575172   -1.169090   -0.764782
H      1.368908   -2.449704    1.097384
H      0.944727    0.392380    1.204046
H      2.145881    1.256893    0.184334
H      3.287369   -3.756140    1.981835
H     -2.690953    3.400553   -2.103664
H     -1.186335    2.583707   -2.545196
H     -1.746953    4.153095   -0.028455
H     -0.587096    4.438463   -1.323339
H      4.009389   -0.227668   -1.350330
H     -4.355913    1.596283   -1.646685
H     -0.916400   -0.812617    0.903725
H      7.598012   -1.916739    1.154790
H      7.633436   -3.152375   -0.194575
H      0.246496    1.617302   -1.483565
