59

C      4.281329    4.209065   -3.055780
C      3.071994   -0.125853   -2.708538
C      4.709991    2.841082   -2.833838
C      5.045942    1.711206   -2.640441
C     -3.051842   -3.535719    1.602943
C     -5.116678    0.702936    0.751870
C      5.440535    0.294477   -2.394983
C     -4.129440   -2.705568    1.361147
C     -5.152854   -0.718161    0.321543
C     -1.796103   -3.177098    1.132033
C     -4.908082    0.934790    2.224037
C      1.982712   -0.931766    0.071276
C      2.824450    0.006968    0.395613
C     -0.982969    0.164474    1.491693
C      4.173106   -0.310544   -1.716636
C     -3.953264   -1.515193    0.643969
C      0.757148   -1.366174    0.820742
C     -1.596203   -2.023199    0.433360
C      4.027527    0.386191   -0.427863
C      0.372469   -0.392911    1.905865
C     -0.897646    0.105256   -0.018133
C     -4.895919    2.379297    2.535622
C     -0.397273   -1.314710   -0.173319
C     -2.695110   -1.199018    0.198349
O      5.155909    0.147777    0.362348
O      0.328453   -0.966936    3.177667
O     -6.017373    2.868114    2.908733
O     -3.800228    3.141652    2.438647
O     -2.225490   -0.082157   -0.530048
K      0.000000    0.000000    0.000000
H      4.843367    4.925280   -2.382531
H      3.212090    4.385360   -2.865505
H      4.500502    4.533296   -4.104293
H      3.418534    0.414140   -3.630603
H      2.190630    0.426506   -2.344212
H      2.730185   -1.125211   -3.117905
H     -3.162660   -4.475369    2.159646
H     -4.391294    1.316147    0.155355
H     -6.118541    1.155107    0.498902
H      6.246742    0.262641   -1.662335
H      5.639420   -0.208780   -3.353458
H     -5.093756   -2.992558    1.726622
H     -5.430346   -0.871564   -0.732053
H     -6.016990   -1.170269    0.925756
H     -0.963828   -3.826329    1.323696
H     -5.678832    0.422860    2.843924
H     -3.919984    0.538647    2.569354
H      2.236302   -1.470437   -0.873238
H      2.686699    0.557783    1.330417
H     -1.721706   -0.569824    1.826973
H     -1.152879    1.189672    1.882563
H      4.393461   -1.382445   -1.529595
H      0.832551   -2.384935    1.192704
H      4.016105    1.487447   -0.626117
H      1.038815    0.484606    1.892497
H     -0.328757    0.875970   -0.489181
H     -0.141229   -1.636959   -1.156486
H      4.893104   -0.106411    1.273265
H      0.687205   -0.282645    3.821493
