60

C      4.310250   -0.367189    0.913212
C      2.891696   -0.256419    0.359580
C      5.333166   -0.013827   -0.118388
C     -2.225671    2.002484    0.796781
C     -1.956139   -2.808403   -0.631797
C     -2.068950    2.892484   -0.411854
C     -2.593377   -3.565407    0.514240
C      1.905452   -0.625297    1.447434
C     -2.049187   -0.388432    0.102099
C     -0.159176    0.609516    1.097401
C     -0.061438   -1.612443    0.427964
C     -1.463506    0.735746    0.668924
C     -1.361198   -1.584343   -0.029985
C      5.207930    1.372998   -0.653590
C     -2.892660    4.135382   -0.144041
C     -3.246017   -4.844851    0.058558
C      5.350787    2.368691    0.426654
C     -2.824633    5.100378   -1.263356
C     -4.311118   -4.617152   -0.930395
N      6.262190    1.553034   -1.652810
N     -4.273937    3.830222    0.109179
N     -2.250104   -5.779530   -0.383318
N      0.536893   -0.539656    0.983039
O      6.312669    3.179127    0.369802
O      4.498705    2.472639    1.498506
O     -3.836763    5.548684   -1.860604
O     -1.580662    5.538755   -1.682054
O     -5.247101   -3.832358   -0.692664
O     -4.266826   -5.285052   -2.135625
H      4.412565   -1.463535    1.162986
H      4.422331    0.177547    1.849635
H      2.779089   -0.858438   -0.539299
H      2.735700    0.820306    0.139647
H      5.366021   -0.779295   -0.910879
H      6.336329   -0.080708    0.394574
H     -3.326720    1.782052    0.888306
H     -1.955890    2.536003    1.731954
H     -2.684215   -2.570550   -1.430952
H     -1.120462   -3.422096   -1.027858
H     -1.019216    3.204432   -0.562733
H     -2.463802    2.371711   -1.294001
H     -3.344085   -2.914977    1.008039
H     -1.792801   -3.810440    1.223705
H      2.146270   -1.665389    1.775572
H      1.997810    0.016250    2.331239
H     -3.070091   -0.330972   -0.246379
H      0.310711    1.479388    1.542009
H      0.487137   -2.540793    0.330647
H      4.217659    1.453214   -1.155037
H     -2.497277    4.635234    0.775356
H     -3.716214   -5.291822    0.978383
H      7.055197    0.929046   -1.404908
H      5.883220    1.254210   -2.570686
H     -4.918769    4.319307   -0.566420
H     -4.561714    3.970900    1.099660
H     -1.286432   -5.546305   -0.062148
H     -2.537322   -6.751384   -0.164046
H      4.879463    2.824072    2.374334
H     -1.547522    6.431316   -2.195191
H     -5.128246   -5.398064   -2.658402
