65

C     -2.332057   -3.218579    0.346556
C     -1.293870    0.913959    4.048702
C      1.019270    2.844239    1.220959
C      5.847349   -1.589156    2.802879
C     -2.624007    4.673341   -2.018984
C     -2.108989   -1.811131    0.819548
C     -2.704642   -1.649627   -2.395277
C      3.740057   -1.569483    0.918689
C      2.716430   -1.553363    0.007562
C     -2.782571   -0.936225   -1.307603
C      1.256153   -0.274782   -2.407649
C     -1.489330   -2.433878   -2.652947
C      0.775633   -1.603171   -2.856854
C      3.111482    0.597299    1.633292
C     -1.872192    0.855509    2.685992
C      3.946856   -0.490387    1.742243
C      1.861024   -0.444011   -0.106355
C      2.054018    0.637433    0.705678
C     -0.345344   -1.246205   -0.845369
C      0.333636    1.218741   -0.716405
C     -1.740278    0.520480    0.286378
C     -1.649704    2.762348   -0.833130
C     -1.669505   -0.891194   -0.310856
C      0.693520   -0.185759   -0.990980
C     -1.152412    1.410982   -0.742541
N      1.072101    1.640189    0.402242
N     -0.313500   -1.985768   -2.049206
O     -3.118658    1.093433    2.580557
O     -1.656333    3.513741    0.168180
O     -1.507564    0.825856   -2.014878
O      4.985221   -0.473826    2.686192
O     -2.151970    3.339822   -2.001711
O     -1.117701    0.557400    1.550818
H     -3.107318   -3.321336   -0.415629
H     -2.620402   -3.844192    1.206168
H     -1.363634   -3.661641   -0.028975
H     -1.733588    0.055243    4.624719
H     -0.204576    0.862402    4.057280
H     -1.678945    1.833668    4.558608
H      1.986093    3.000576    1.797662
H      0.970386    3.723230    0.549461
H      0.238799    2.889547    1.956000
H      6.440959   -1.752473    1.876703
H      5.266011   -2.533507    2.984498
H      6.502598   -1.454081    3.676511
H     -1.946584    5.327810   -2.619852
H     -3.624690    4.726540   -2.486345
H     -2.622629    5.128272   -0.993325
H     -2.999397   -1.455397    1.333174
H     -1.286505   -1.844053    1.571999
H     -3.556685   -1.647098   -3.099483
H      4.380429   -2.415313    0.994888
H      2.532389   -2.373568   -0.642417
H     -3.692484   -0.361727   -1.133605
H      2.356567   -0.267871   -2.438344
H      0.920704    0.570496   -3.040616
H     -1.338688   -2.411519   -3.775315
H     -1.648177   -3.534839   -2.450140
H      0.484413   -1.504282   -3.943595
H      1.554839   -2.401798   -2.832738
H      3.286957    1.451152    2.295121
H      0.087776   -1.977289   -0.078791
H      0.698849    1.874035   -1.579903
H     -2.820206    0.751793    0.390379
H     -1.245381    1.518993   -2.669816
