53

C     -0.654492    2.821401    1.210135
C      9.945593   -1.268417   -0.178817
C     -6.493114   -2.230165   -1.413895
C     -6.175857   -1.810496   -0.036744
C     -7.196682   -1.454808   -2.204675
C      5.987315    0.000316   -0.589787
C      5.582389   -0.432659    1.690789
C      3.714882    0.451129    0.319979
C      7.290087   -0.423225   -0.429922
C      6.886041   -0.853725    1.839374
C      3.164997    0.883272   -0.792915
C     -3.601402    0.135651    1.683261
C     -0.386241    1.673950    0.273048
C      5.094710    0.009410    0.460810
C      7.773923   -0.860215    0.783784
C     -2.765376    0.875550    0.652218
C     -3.766907   -0.142373    0.256258
C     -6.229623   -0.331098    0.138622
C     -7.694069   -0.162599   -1.778581
C      1.759802    1.312587   -0.851650
C     -1.316807    0.578928    0.617187
C     -5.010585    0.300977   -0.475729
O     -8.365617    0.612092   -2.485788
O      1.241660    1.724547   -1.920024
O     -0.937869   -0.542994    0.869296
O     -4.940711    0.094916   -1.830315
O      9.081968   -1.288861    0.958311
O      0.961965    1.276303    0.270571
O     -7.394577    0.242891   -0.470204
H     -0.500024    3.760110    0.639018
H     -1.686053    2.837186    1.602660
H      0.042369    2.833914    2.073391
H      9.600299   -1.982168   -0.938168
H      9.937756   -0.225524   -0.594776
H     10.980513   -1.529782    0.107909
H     -6.135595   -3.184426   -1.755349
H     -5.172581   -2.151788    0.292151
H     -6.914772   -2.285054    0.641424
H     -7.427839   -1.773565   -3.223790
H      5.693868    0.322082   -1.560047
H      4.886689   -0.428573    2.522047
H      3.086309    0.424089    1.197687
H      7.981535   -0.424226   -1.268732
H      7.261904   -1.196756    2.796947
H      3.768818    0.920380   -1.681988
H     -3.062054   -0.621573    2.292259
H     -4.259550    0.777484    2.267894
H     -0.644760    2.001377   -0.762918
H     -3.070450    1.928517    0.411681
H     -3.338417   -1.092004   -0.134067
H     -6.294813   -0.060691    1.208287
H     -5.102599    1.413086   -0.320362
H     -5.185960    0.886591   -2.377752
