65

C     -1.535528   -1.701381   -2.817826
C     -1.371944    3.682775   -1.810420
C      1.870156    1.284713    2.856445
C      5.157948    1.105608   -3.122701
C     -0.987873    3.922996    3.293136
C     -1.513394   -0.477990   -1.968277
C     -3.368604   -2.668795   -0.168247
C      3.020439   -0.369433   -1.975232
C      1.990534   -1.057661   -1.391114
C     -3.126387   -1.410072   -0.481117
C      0.987111   -2.584178    1.266303
C     -2.299316   -3.622342    0.229458
C     -0.117950   -3.600446    1.065859
C      3.080507    1.049307   -0.061396
C     -1.960358    2.609349   -0.960095
C      3.574117    0.691484   -1.313317
C      1.483227   -0.732002   -0.164825
C      2.027064    0.331499    0.516928
C     -0.791738   -1.786440   -0.050537
C      0.124783   -0.296763    1.752986
C     -1.791628    0.492974    0.295417
C     -0.796710    1.898931    1.958497
C     -1.776420   -0.784302   -0.479785
C      0.417678   -1.284579    0.668364
C     -1.109941    0.483523    1.611341
N      1.354157    0.478680    1.770427
N     -1.300501   -2.774555    0.907654
O     -3.174631    2.647125   -0.598766
O      0.016861    2.505582    1.215146
O     -2.030608    0.055086    2.593219
O      4.629840    1.426650   -1.870740
O     -1.343728    2.568596    3.035180
O     -1.233428    1.513883   -0.512827
H     -2.253536   -2.477934   -2.433333
H     -1.909588   -1.400803   -3.838299
H     -0.560308   -2.199064   -2.939646
H     -0.594527    3.317703   -2.480961
H     -0.958524    4.470865   -1.130297
H     -2.223713    4.177895   -2.340144
H      2.667172    0.640637    3.336632
H      2.441489    2.144871    2.445031
H      1.133247    1.549176    3.612012
H      5.361889    0.010698   -3.231921
H      6.168724    1.587607   -3.193738
H      4.558712    1.461735   -3.962337
H     -0.312618    3.951482    4.174144
H     -0.436709    4.379243    2.443172
H     -1.895642    4.535504    3.474976
H     -2.283005    0.227058   -2.351730
H     -0.551678    0.041551   -2.119561
H     -4.397530   -3.053100   -0.195181
H      3.376197   -0.669026   -2.936058
H      1.567910   -1.893205   -1.925066
H     -3.991022   -0.763170   -0.768136
H      1.102346   -2.429289    2.359895
H      1.903512   -2.905429    0.767454
H     -2.660012   -4.333788    0.996537
H     -1.823461   -4.110565   -0.630705
H     -0.204089   -4.311242    1.905889
H      0.059816   -4.100404    0.090408
H      3.536489    1.891951    0.439719
H     -0.428374   -2.395270   -0.916339
H      0.134372   -0.870855    2.721511
H     -2.853512    0.774864    0.457214
H     -1.777764   -0.847517    2.879722
