59

C      6.938917   -1.327991    2.879088
C      5.727088   -1.184266   -1.760151
C      6.269318   -0.590641    1.758667
C      5.783678   -0.053997    0.915250
C     -3.145993   -0.705621   -2.971976
C     -6.375675    1.221299   -0.235790
C      5.126968    0.711335   -0.268206
C     -4.137763    0.143901   -2.601221
C     -5.195434    1.656017   -0.985761
C     -2.120363   -0.942793   -2.070395
C     -6.250746    0.560090    1.071060
C      1.277459   -0.326614   -0.497772
C      2.482378   -0.331199    0.008743
C     -0.749821    1.124066    2.051919
C      4.582514   -0.307623   -1.231176
C     -4.135180    0.753916   -1.372235
C      0.117994    0.465232   -0.088406
C     -2.069627   -0.352094   -0.819368
C      3.586812   -1.191642   -0.513173
C      0.268138    1.413704    1.016026
C     -1.773580    0.243174    1.390508
C     -5.623631   -0.757023    1.119021
C     -1.062115   -0.447443    0.280826
C     -3.091980    0.502569   -0.474358
O      4.198885   -1.828137    0.564454
O     -0.038994    2.721876    0.531461
O     -5.388308   -1.461229    0.082753
O     -5.230108   -1.345486    2.315484
O     -2.835742    0.974998    0.825947
K      0.000000    0.000000    0.000000
H      6.858173   -0.699583    3.754790
H      6.421290   -2.294461    3.088186
H      7.977235   -1.613845    2.594881
H      5.344387   -1.699491   -2.681693
H      5.902491   -1.950028   -1.001682
H      6.582947   -0.542945   -1.967801
H     -3.144680   -1.186304   -3.953118
H     -6.988778    2.164388   -0.036096
H     -7.099956    0.662713   -0.920191
H      4.325755    1.343097    0.136602
H      5.923050    1.324783   -0.689848
H     -4.948123    0.311364   -3.323537
H     -5.597761    2.106568   -1.958245
H     -4.775660    2.583231   -0.462439
H     -1.297936   -1.629909   -2.332810
H     -5.771624    1.218455    1.831960
H     -7.320824    0.438508    1.472634
H      1.102883   -1.010024   -1.350564
H      2.702296    0.308760    0.835286
H     -0.347207    0.580295    2.931386
H     -1.215899    2.050932    2.478676
H      4.091494    0.224753   -2.077411
H     -0.224509    0.981691   -1.046047
H      3.169526   -1.957934   -1.212888
H      1.296358    1.547017    1.428170
H     -2.225465   -0.441799    2.156578
H     -0.760852   -1.467992    0.514043
H      3.544352   -2.315137    1.124578
H     -0.658055    2.644428   -0.254619
