39

C      3.676654   -0.795924    2.700723
C      0.962341   -0.916660    1.388256
C      0.900289    2.594959   -0.707188
C     -4.518768   -0.716130   -0.184028
C      3.387254   -0.493258    1.279422
C     -1.372224    1.347557   -0.210000
C     -0.064084   -1.471623   -2.256516
C      2.044293    0.071660    0.968100
C      0.877676    1.114612   -1.149727
C     -3.107032   -0.260473   -0.453154
C     -0.474223    0.599582   -0.952884
C     -0.920388   -0.610575   -1.454158
C     -2.661992    0.937496    0.040815
C      1.972003    0.388222   -0.473996
C     -2.236226   -1.010879   -1.187581
O     -0.529465   -2.547574   -2.680222
O     -3.549230    1.701003    0.789909
O      2.906113    0.008573   -1.152943
O     -2.667779   -2.244362   -1.706808
H      4.352635    0.014107    3.111430
H      2.832549   -0.883201    3.370999
H      4.289176   -1.743425    2.776651
H      1.353189   -1.528611    2.222428
H     -0.000424   -0.430186    1.611345
H      0.892555   -1.638744    0.521128
H      1.860777    3.062804   -1.004649
H      0.094427    3.176569   -1.179665
H      0.865378    2.626456    0.397080
H     -4.512806   -1.767243    0.137844
H     -5.134311   -0.577427   -1.089951
H     -4.945890   -0.035941    0.581977
H      4.188361    0.158989    0.814598
H      3.474575   -1.443604    0.672029
H     -1.118755    2.319791    0.227645
H      0.933546   -1.217248   -2.491768
H      1.815361    0.982277    1.593172
H      1.045580    1.181542   -2.257546
H     -3.300503    2.592652    1.190747
H     -3.610631   -2.545765   -1.520748
