47

C     -3.487919   -4.094605    0.742292
C     -2.779376   -3.608461    1.823219
C     -3.498196   -3.326899   -0.410026
C     -2.113418   -2.416676    1.761399
C      5.183387   -0.378003   -0.648375
C      6.553907   -0.369533   -0.972968
C     -2.683408   -1.135253   -1.572252
C      5.539959    1.590573    0.595744
C     -3.745016    0.515352   -0.110893
C     -2.827328   -2.124367   -0.475397
C     -2.446507    0.143295   -0.801830
C      4.663576    0.596950    0.135275
C     -2.129255   -1.661296    0.613389
C      7.396606    0.603014   -0.518951
C      6.859778    1.599449    0.283799
C     -1.497258   -0.334615    0.276225
C      2.271611   -0.012946   -0.093966
C      0.890358    0.192284    0.407560
C     -3.242597    2.916611   -0.129810
Cl     9.100984    0.614314   -0.922981
F      7.668903    2.593366    0.760834
N     -3.513373    2.917519   -1.381447
N     -2.711741    4.069882    0.488565
N     -3.485370    1.741853    0.616600
N      3.325061    0.700857    0.505220
N     -0.151582   -0.524841   -0.201323
O      2.464653   -0.800510   -1.020118
O      0.679150    0.978357    1.338499
H     -4.010877   -5.048835    0.817565
H     -2.724502   -4.154796    2.764655
H     -4.063341   -3.715719   -1.270794
H     -1.543943   -2.014293    2.612519
H      4.577600   -1.192745   -1.039339
H      6.912603   -1.177441   -1.605218
H     -3.629499   -1.032378   -2.140101
H     -1.831720   -1.392448   -2.237358
H      5.159699    2.390704    1.228069
H     -4.103390   -0.291376    0.532322
H     -4.535289    0.746274   -0.866081
H     -2.039568    0.948981   -1.406112
H     -1.568454    0.378816    1.105660
H     -3.384702    3.698492   -2.028279
H     -3.105467    4.323336    1.439052
H     -1.960238    4.664462    0.045170
H     -3.485348    1.719798    1.658754
H      3.073051    1.364265    1.301435
H     -0.022203   -1.200769   -0.991580
