45

C     -0.895292   -2.603585    2.454669
C      4.649809   -0.130386    0.894528
C     -4.598671    0.986565   -1.381572
C      1.476842   -0.421153   -2.719907
C     -0.061074   -1.496386    1.828405
C      4.317129    1.173437    0.225570
C     -3.522121   -0.039319   -0.989687
C      0.321997   -0.319442   -1.724184
C     -2.249163   -0.682588    1.081161
C     -0.369010    0.702988    0.484992
C      2.001936    0.198746   -0.026091
C     -0.909909   -0.474281    1.122617
C      2.895730    1.179776   -0.193994
C     -3.244881    0.175589    0.459588
C      2.207452    2.246574   -0.890674
C      0.706780    0.558913   -0.560454
O     -3.195098    1.527931    0.804231
O      2.769070    3.357947   -1.218884
O      0.911413    1.890289   -1.132451
H     -1.377611   -3.220585    1.681656
H     -0.135712   -3.219636    3.031497
H     -1.576558   -2.196138    3.217817
H      5.711230   -0.263422    1.095760
H      4.351430   -0.975311    0.208111
H      4.092150   -0.254493    1.855699
H     -5.470710    0.810728   -0.721523
H     -4.230297    2.009928   -1.145195
H     -4.851220    0.876504   -2.452026
H      1.574767    0.499164   -3.330175
H      2.391065   -0.650528   -2.133557
H      1.268283   -1.311404   -3.348949
H      0.648522   -1.941517    1.098787
H      0.512285   -1.010647    2.619521
H      4.464743    1.990431    0.965536
H      4.995657    1.316680   -0.625975
H     -4.033931   -1.031822   -1.166495
H     -2.691365    0.039721   -1.673586
H     -0.471425    0.222107   -2.286908
H      0.056057   -1.349776   -1.443887
H     -2.564674   -1.625961    1.587699
H     -1.149271    1.328359   -0.010394
H      0.013371    1.393372    1.310506
H      2.327637   -0.712535    0.456397
H     -4.238894   -0.139860    0.968193
H     -2.828464    1.585030    1.723626
