51

C     -9.112622    0.829189   -0.347174
C      2.660229    1.744023    0.116556
C      1.877193    0.527714    0.555047
C      4.134766    1.467981    0.045271
C      7.673097   -1.241461   -0.386135
C      7.904663    0.346913   -2.113257
C     -5.384220   -0.929794    1.495814
C      9.887058   -1.003957   -1.466307
C     -4.888692   -0.249991   -1.491482
C      8.488215   -0.630890   -1.323890
C      6.342950   -0.895447   -0.241685
C      6.576256    0.690697   -1.967161
C     -6.470248    0.035631    1.109705
C     -6.060305    0.360717   -1.347374
C     -1.889387   -0.000856    1.099124
C     -6.752385    0.570356   -0.062365
C      5.761835    0.082033   -1.031637
C     -2.873541   -1.035303    1.504902
C     -0.450358   -0.218528    1.014657
C     -4.123358   -0.477977    0.862399
Br     5.227774   -1.744634    1.055580
Br     5.777965    2.045079   -3.064316
Br    -7.635701    0.588478    2.519326
Br    -6.922261    1.021435   -2.920295
N      0.455989    0.802415    0.620898
N     -2.534801    1.084100    0.846648
O     10.616484   -0.448318   -2.315024
O     -3.044861   -1.094966    2.882401
O      0.050405   -1.339047    1.292514
O     -7.841529    1.455903   -0.137595
O      4.425336    0.424874   -0.881509
O     -4.058453   -0.818032   -0.519453
O     -3.880993    0.925692    1.032117
H     -9.350707    0.126924    0.475466
H     -9.891273    1.607612   -0.411439
H     -9.121891    0.252719   -1.278373
H      2.325786    2.102283   -0.864063
H      2.517605    2.574591    0.837602
H      2.128432   -0.364263   -0.031760
H      2.195355    0.308011    1.608195
H      4.561502    1.160382    1.025911
H      4.700259    2.351072   -0.286656
H      8.118543   -1.998900    0.227819
H      8.538361    0.837007   -2.858214
H     -5.671534   -1.904611    1.066210
H     -5.318386   -1.012758    2.578206
H     10.305587   -1.766718   -0.836700
H     -4.541627   -0.304984   -2.533980
H     -2.614014   -2.041548    1.126044
H      0.099647    1.737740    0.382601
H     -2.918147   -0.232295    3.336832
