46

C     -5.010882    1.658261    0.843132
C     -0.578769   -1.212591   -2.359891
C      4.226450    1.739869   -1.687658
C      1.266246   -1.927343    2.417902
C     -4.150282    0.831022    1.741173
C     -1.503691   -0.489104   -1.463538
C      4.159382    0.275872   -2.023280
C      2.046178   -0.928640    1.650029
C     -3.018474    0.134174    0.992690
C     -2.116468    1.100754    0.321252
C      0.019955   -0.071307    0.551720
C      2.301256    0.336818   -0.347736
C     -0.950696    0.393731   -0.444877
C      3.054703   -0.324045   -1.199001
C      2.575404   -1.699959   -1.265256
C      1.347550   -0.603351    0.265479
O      3.095238   -2.610998   -1.995514
O      1.498450   -1.798264   -0.415113
H     -5.077116    1.298967   -0.182291
H     -4.621925    2.716653    0.900247
H     -6.042820    1.717936    1.284973
H      0.352862   -0.670724   -2.589684
H     -0.360101   -2.253896   -2.132597
H     -1.151421   -1.315631   -3.370540
H      3.202596    2.165052   -1.888168
H      4.337202    1.799833   -0.566556
H      5.021201    2.275782   -2.210966
H      0.668816   -2.612455    1.766012
H      1.978552   -2.583797    2.965330
H      0.622941   -1.468086    3.207446
H     -4.737039    0.011297    2.219450
H     -3.703989    1.419681    2.567122
H     -2.189700    0.123831   -2.126428
H     -2.139351   -1.297490   -0.971613
H      3.973134    0.083256   -3.091042
H      5.141770   -0.173580   -1.763324
H      2.130794    0.006658    2.222725
H      3.055180   -1.310260    1.439990
H     -3.503956   -0.588060    0.325495
H     -2.489746   -0.456408    1.769481
H     -1.610688    1.762261    1.045827
H     -2.696997    1.718855   -0.384595
H     -0.534692   -0.729514    1.316283
H      0.209156    0.853224    1.233245
H      2.371698    1.427475   -0.126358
H     -0.467911    1.274242   -0.981082
