46

C      4.785578   -0.664762    0.219289
C      2.900299    1.026775   -1.972846
C     -4.938431   -0.509620    2.038179
C     -1.345767   -1.648005   -1.876221
C      3.521383   -1.419133    0.562987
C      1.632274    0.253904   -1.539506
C     -4.575145    0.884754    1.632306
C     -1.596726   -0.171173   -1.838728
C      2.593511   -0.672272    1.437597
C      2.053970    0.568316    0.959425
C     -0.189143    0.140470    0.212167
C     -2.615728   -0.122974    0.393165
C      1.137891    0.672975   -0.233310
C     -3.337533    0.891290    0.778033
C     -2.765852    2.110640    0.248212
C     -1.461345    0.360095   -0.456789
O     -3.233474    3.306188    0.437628
O     -1.656074    1.797152   -0.482100
H      5.007737   -0.646603   -0.862149
H      4.675358    0.397535    0.581849
H      5.646619   -1.108204    0.768772
H      3.356909    1.470133   -1.082864
H      3.597917    0.348005   -2.496160
H      2.634647    1.846890   -2.656772
H     -5.447996   -1.009765    1.173040
H     -5.715008   -0.434172    2.836149
H     -4.097094   -1.100040    2.429604
H     -0.327685   -1.896264   -2.265468
H     -2.079548   -2.127351   -2.561462
H     -1.482047   -2.141343   -0.884282
H      3.912606   -2.357905    1.109055
H      3.074163   -1.824098   -0.360437
H      1.777842   -0.776154   -1.791530
H      0.888198    0.677810   -2.313018
H     -4.405447    1.527670    2.526385
H     -5.442118    1.319433    1.092283
H     -1.057980    0.363265   -2.580100
H     -2.734885   -0.017012   -2.113107
H      1.825964   -1.366658    1.914905
H      3.219965   -0.421811    2.375930
H      1.455270    1.059700    1.812394
H      2.896833    1.322965    0.848087
H      0.004160   -0.992003    0.357968
H     -0.296659    0.432870    1.329711
H     -2.768424   -1.162953    0.614287
H      0.971012    1.811438   -0.322559
