45

C      3.868245   -1.457431    0.136844
C      2.481583   -0.941022   -0.117927
C     -5.978036    1.558796   -1.392733
C     -4.714653    0.997335   -1.344536
C      4.626138   -0.392516    0.942431
C     -6.205729    1.264275    0.979079
C     -3.009020   -0.227496    1.529871
C     -6.684597    1.674572   -0.227115
C     -4.186290    0.567300   -0.150052
C     -2.952118   -0.026170    0.168537
C      1.639673   -1.855662   -0.918509
C     -4.929985    0.698914    1.018338
C     -1.908539   -0.323745   -0.792172
C     -0.663936   -0.937695   -0.360623
C      1.443323   -3.150285   -0.276477
C      5.390234    1.937002    0.864199
N      5.459298    1.962417    2.160366
N      5.977022    2.972690    0.087977
N      4.716004    0.853353    0.232234
N     -4.183590    0.204674    2.025048
N      0.375908   -1.235964   -1.310231
O     -7.948527    2.235795   -0.272372
O     -2.065943   -0.054993   -2.010141
O     -0.427353   -1.235955    0.829379
O      0.247005   -3.570935   -0.095825
O      2.464962   -3.941095    0.141058
H      3.899421   -2.377379    0.750556
H      4.394352   -1.652990   -0.818736
H      2.524383    0.062049   -0.620218
H      1.982511   -0.721624    0.874893
H     -6.330133    1.874737   -2.365525
H     -4.117427    0.886135   -2.249482
H      4.082910   -0.239813    1.895950
H      5.638534   -0.761549    1.205464
H     -6.729333    1.337323    1.919675
H     -2.202728   -0.679271    2.122765
H      2.162341   -2.064664   -1.889058
H      5.933894    2.720905    2.671149
H      5.333744    3.584055   -0.459322
H      7.005038    3.072263    0.100819
H      4.318827    1.006894   -0.713900
H     -4.499019    0.178205    3.016037
H      0.154418   -0.974445   -2.296106
H     -8.782886    1.707593   -0.415440
H      2.400074   -4.534583    0.955889
