53

C     -2.135194   -1.041054    2.355338
C      1.217922   -3.878115    0.892302
C      4.899392   -1.418465   -1.090139
C      3.967125    2.291822    0.530782
C      0.799389    4.271178    0.537271
C     -3.379479    0.257594   -1.962610
C     -2.316472    1.244990   -2.255510
C     -4.289716   -1.610683   -0.521391
C     -3.891225   -1.811982    0.921319
C      0.503732   -1.263137    0.288418
C     -3.357473   -0.575929   -0.974251
C      0.141698   -0.002638   -0.002448
C     -1.481539    1.574515   -1.051360
C      1.849483   -1.629208    0.311634
C     -1.252321    0.481565   -0.067253
C      1.128741    0.961328   -0.285279
C     -2.226062   -0.625661   -0.039273
C      2.829968   -0.700833    0.036452
C      2.452635    0.610622   -0.264890
C      0.650790    2.332785   -0.594310
N     -2.938426   -0.749382    1.220962
O      2.223059   -2.932431    0.611749
O      4.186305   -0.982998    0.038058
O      3.414275    1.569705   -0.545547
O      0.172711    3.041296    0.474057
O     -0.333241    2.164435   -1.576739
H     -1.429667   -0.240906    2.552353
H     -1.705608   -2.063377    2.368330
H     -2.841551   -1.031914    3.240394
H      0.483738   -3.966209    0.070376
H      0.635391   -3.638388    1.804986
H      1.655704   -4.886961    1.044640
H      4.952103   -0.657617   -1.892248
H      4.491637   -2.355174   -1.526470
H      5.947721   -1.597327   -0.766378
H      4.247681    3.314189    0.213986
H      4.896896    1.802817    0.920590
H      3.282458    2.370473    1.401450
H      1.889873    4.197071    0.658414
H      0.364362    4.931214    1.321153
H      0.660996    4.748563   -0.477303
H     -4.231758    0.271789   -2.670956
H     -2.812887    2.152619   -2.660874
H     -1.728692    0.824674   -3.100011
H     -5.357783   -1.326090   -0.624686
H     -4.089678   -2.521990   -1.134583
H     -4.804199   -1.642906    1.539511
H     -3.459114   -2.816413    1.078009
H     -0.173140   -2.082235    0.534010
H     -2.024465    2.400782   -0.541396
H     -1.358327    0.973140    0.966821
H     -1.773591   -1.627250   -0.214950
H      1.445822    2.888105   -1.092514
