53

C      2.813412   -1.893401   -1.266913
C     -2.748207    0.238852    3.303171
C      5.814674    0.502587    1.691436
C     -0.560298   -1.608972   -2.853603
C     -6.758758    1.440284   -1.797329
C      2.783719   -0.418513   -1.344805
C     -2.284965   -1.087206    2.745292
C      4.342060    0.193523    1.424159
C     -0.478925   -1.898287   -1.393293
C      2.298639    1.172770    0.347602
C     -3.993332    0.049661    0.395498
C      0.351583    0.449084   -0.817410
C     -0.644649   -1.025167    0.868988
C      1.771648    0.336866   -0.619940
C     -1.837660   -0.817865    1.329362
C      3.694356    1.337260    0.666490
C     -2.692244   -0.285655    0.284728
C     -4.698145    0.572636   -0.767059
C     -0.616723   -0.629516   -0.576585
O      4.514848    1.874193   -0.324544
O     -4.124225    0.715012   -1.855650
O     -6.036933    0.927352   -0.687803
O     -1.931010   -0.188693   -0.830050
H      2.361105   -2.225373   -0.304247
H      2.277662   -2.429783   -2.074886
H      3.867392   -2.288665   -1.349591
H     -2.674764    1.062875    2.564894
H     -3.803173    0.142663    3.675662
H     -2.158874    0.528061    4.211862
H      6.129292    0.064417    2.683324
H      6.429696    0.075381    0.882957
H      5.982312    1.609427    1.720806
H     -1.602246   -1.376500   -3.192181
H     -0.290769   -2.543018   -3.427524
H      0.173125   -0.849269   -3.209121
H     -7.000375    0.676757   -2.546738
H     -6.241935    2.327551   -2.239101
H     -7.717556    1.832828   -1.391274
H      3.815844   -0.011502   -1.290406
H      2.540972   -0.198308   -2.455619
H     -1.432516   -1.452001    3.327413
H     -3.092972   -1.836719    2.699062
H      3.887126    0.137864    2.457706
H      4.306875   -0.750857    0.900251
H     -1.513846   -2.416698   -1.184342
H      0.196714   -2.643716   -1.038093
H      1.547462    1.753764    0.916701
H     -4.445710   -0.090951    1.355233
H      0.224367    0.739157   -1.933390
H     -0.098222    1.380155   -0.338710
H      0.219997   -1.426745    1.435701
H      3.732696    2.182926    1.449624
H      5.401453    1.443620   -0.227716
