45

C     -0.451429   -3.478312    0.606136
C      4.244539    1.628748   -1.664394
C     -3.534388    2.773692   -1.103319
C      1.546218   -1.379705    3.055956
C     -1.650758   -2.585424    0.842951
C      2.756584    1.433288   -1.925701
C     -3.445461    1.403007   -0.495210
C      1.768330   -1.235235    1.566430
C     -2.293169   -0.763902   -0.536091
C     -0.521078   -0.210318    0.939710
C      1.420544   -0.144503   -0.476475
C     -1.438621   -1.174810    0.432745
C      2.081939    0.965975   -0.670472
C     -2.346579    0.560110   -1.157211
C      2.095432    1.755530    0.544559
C      0.924282   -0.189753    0.921134
O     -2.802488    0.432398   -2.501975
O      2.648657    2.896865    0.719991
O      1.394631    1.023896    1.457493
H     -0.756478   -4.522297    0.306215
H      0.150484   -3.099770   -0.230257
H      0.128582   -3.624389    1.547564
H      4.407818    2.582615   -1.109921
H      4.768673    1.653355   -2.639934
H      4.634342    0.757590   -1.105798
H     -3.207933    2.781090   -2.165478
H     -2.958107    3.492767   -0.488303
H     -4.600185    3.088637   -1.045626
H      1.478016   -0.347431    3.463129
H      0.584663   -1.887880    3.292324
H      2.409142   -1.859306    3.535244
H     -2.465261   -3.061253    0.264011
H     -2.031219   -2.684157    1.880658
H      2.612472    0.689014   -2.728653
H      2.355305    2.436862   -2.196474
H     -4.412790    0.865053   -0.508785
H     -3.152197    1.508728    0.566125
H      2.822739   -0.769967    1.559588
H      1.964596   -2.145158    1.014503
H     -3.060279   -1.459322   -0.940492
H     -0.751212   -0.224542    2.082643
H     -0.878258    0.817513    0.711464
H      1.273409   -0.907512   -1.253178
H     -1.463672    1.188117   -1.111994
H     -2.249834    1.020095   -3.062203
