53

C     -3.089140   -2.092283   -1.693943
C      1.136827   -3.708649   -1.558837
C      4.759762   -1.746431    0.837389
C      3.954763    1.371912    1.886185
C      1.676503    4.184465   -0.587930
C     -3.219018    0.484569    1.766054
C     -1.758775    0.699826    2.119197
C     -4.613606   -0.418521   -0.254472
C     -4.083647   -0.004463   -1.639860
C      0.506713   -1.147288   -0.722746
C     -3.430117   -0.026376    0.562367
C      0.204197    0.126957   -0.305311
C     -1.276233    1.571025    0.940599
C      1.817426   -1.564234   -0.720879
C     -1.163848    0.704519   -0.268736
C      1.246472    0.955536    0.107484
C     -2.231468   -0.350660   -0.252623
C      2.844368   -0.717421   -0.303399
C      2.562580    0.564231    0.118858
C      0.905595    2.325975    0.559277
N     -2.764788   -0.660040   -1.572662
O      2.168860   -2.841837   -1.133677
O      4.169187   -1.124562   -0.296526
O      3.598427    1.392693    0.530723
O      0.760018    3.113796   -0.589696
O     -0.246509    2.374592    1.278704
H     -4.056430   -2.255466   -2.211059
H     -2.322380   -2.591458   -2.349965
H     -3.157589   -2.580908   -0.709094
H      0.349971   -3.706950   -0.762539
H      0.650488   -3.351642   -2.488680
H      1.503925   -4.742412   -1.722840
H      5.700316   -1.243855    1.083990
H      4.890336   -2.822350    0.571933
H      4.069297   -1.681332    1.687090
H      3.864963    2.349463    2.381852
H      3.335235    0.650080    2.480661
H      5.003440    0.995316    1.986023
H      2.677650    3.744263   -0.559234
H      1.459131    4.764591   -1.503282
H      1.484321    4.745320    0.342014
H     -4.031208    0.712555    2.404905
H     -1.721109    1.318490    3.013348
H     -1.229465   -0.249025    2.166897
H     -5.522934    0.119817    0.005838
H     -4.817910   -1.490199   -0.252124
H     -4.647040   -0.467633   -2.448610
H     -4.003448    1.077847   -1.733697
H     -0.307299   -1.773151   -1.042621
H     -2.162722    2.275916    0.754492
H     -1.327130    1.281953   -1.218281
H     -1.840516   -1.324107    0.152164
H      1.723559    2.777546    1.165276
