42

C     -2.198113    0.609800    1.469373
C     -3.747225    1.514199   -1.016263
C     -4.600671    0.559392   -0.213919
C     -2.278537    1.346113   -0.889490
C      4.311193    1.208914    0.490339
C      1.346053   -1.725873   -0.225267
C      0.526500    0.829887    0.222616
C      6.162133   -0.367395    0.284242
C     -4.538067   -2.071860   -0.721825
C     -4.088634   -0.809387   -0.427824
C      4.721550   -0.031830    0.274023
C      1.867847    0.557553    0.239352
C      2.297020   -0.755272    0.010191
C     -0.015644   -1.425592   -0.238337
C     -0.441228   -0.134371   -0.011834
C      2.896288    1.558093    0.484053
C     -2.712270   -0.930398   -0.336393
C      3.741828   -1.052379    0.028001
C     -0.936372   -2.543136   -0.530410
C     -2.371005   -2.207755   -0.570997
C     -1.867345    0.213278    0.009483
O      6.945586    0.757268    0.540037
O      2.570849    2.746881    0.694811
O      4.069992   -2.250950   -0.184496
O     -0.569661   -3.710027   -0.735831
O     -3.480982   -2.876226   -0.798173
H     -2.858048   -0.135512    1.941200
H     -2.582724    1.653781    1.503556
H     -1.262488    0.606303    2.062282
H     -4.077107    1.475756   -2.077218
H     -4.029440    2.535280   -0.663680
H     -4.729155    0.853378    0.829574
H     -5.615436    0.574051   -0.713989
H     -1.826235    2.277960   -0.497779
H     -1.846597    1.203527   -1.906676
H      5.027202    1.984581    0.675852
H      1.677092   -2.738937   -0.402358
H      0.231660    1.867490    0.406248
H      6.410979   -0.771124   -0.716353
H      6.367964   -1.126403    1.070231
H     -5.584494   -2.315386   -0.857818
H      7.085738    0.906627    1.501465
