37

C     -1.718872   -1.585068    1.084355
C     -2.017411   -0.608668   -1.034245
C      4.515569   -0.550256   -0.805929
C      4.377537    1.559059    0.191158
C      5.871703   -0.397174   -0.997538
C      5.733298    1.734179    0.009763
C     -0.333653   -1.503022    0.960179
C     -0.631820   -0.525796   -1.160189
C     -4.058296   -1.232111    0.233267
C     -2.579175   -1.146653    0.105345
C      3.734123    0.410313   -0.213014
C      6.502758    0.760444   -0.586893
C      0.220067   -0.970018   -0.168973
C     -4.533986    0.048017    0.877668
C     -5.981323    0.096780    1.063927
C      2.307219    0.289589    0.007161
N     -4.068072    1.167474    0.077534
O      7.850045    0.912895   -0.777079
O     -6.575876   -0.778469    1.724142
O     -6.706838    1.129482    0.499937
O      1.623012    1.192780    0.554826
O      1.586420   -0.849261   -0.377428
H     -2.164614   -2.005906    1.975561
H     -2.663841   -0.254358   -1.823580
H      4.056134   -1.465181   -1.138080
H      3.815515    2.360619    0.668522
H      6.487649   -1.163028   -1.468897
H      6.262792    2.636310    0.322492
H      0.309096   -1.850229    1.734047
H     -0.198197   -0.098054   -2.066768
H     -4.372042   -2.087473    0.860334
H     -4.461774   -1.307321   -0.803764
H     -4.040786    0.109975    1.873046
H     -4.289805    2.057256    0.574607
H     -4.523159    1.140644   -0.872083
H      8.343891    1.743052   -0.490578
H     -7.677289    1.029177    0.229838
