42

C     -1.932526   -1.475743    0.929137
C     -3.315602    1.200056    1.958421
C     -4.349129    0.279880    1.368805
C     -1.912589    0.851329    1.608576
C      4.651299   -0.136336   -0.900163
C      1.061962    0.035650   -2.062757
C      0.736244   -0.064304    0.606673
C      5.720066   -0.263054    1.296425
C     -4.823056    0.415587   -1.281421
C     -4.135964    0.296168   -0.106750
C      4.523837   -0.185579    0.409427
C      2.182404   -0.036343   -1.268066
C      2.016662   -0.086619    0.097866
C     -0.232230    0.061101   -1.588371
C     -0.395728    0.007282   -0.197924
C      3.532435   -0.059925   -1.826180
C     -2.808777    0.196535   -0.544160
C      3.188397   -0.163226    0.984754
C     -1.379594    0.188476   -2.480627
C     -2.738376    0.262886   -1.893793
C     -1.726632   -0.026218    0.428847
O      5.713826   -1.417187    2.079915
O      3.665953   -0.013401   -3.074354
O      3.043510   -0.209089    2.226242
O     -1.262350    0.237521   -3.723101
O     -3.959693    0.390699   -2.310287
H     -1.014049   -2.077293    0.753959
H     -2.807333   -1.927186    0.446006
H     -2.111580   -1.470446    2.017409
H     -3.532492    2.217183    1.516775
H     -3.392203    1.269817    3.063436
H     -5.337159    0.808603    1.523056
H     -4.368552   -0.718727    1.791007
H     -1.438622    0.310952    2.483357
H     -1.327744    1.796254    1.468190
H      5.673444   -0.154830   -1.307039
H      1.216745    0.075409   -3.151644
H      0.653180   -0.106307    1.690903
H      6.659774   -0.271771    0.715521
H      5.708675    0.663276    1.912462
H     -5.902564    0.514393   -1.349218
H      6.256131   -1.215474    2.905820
