45

C     -1.360123   -1.300149    2.799040
C      3.028279    2.605294   -1.222924
C     -4.539181    2.199779   -1.184923
C      2.144588   -2.738031   -1.669599
C     -1.044232   -0.134967    1.845911
C      3.187925    2.135034    0.183682
C     -3.456043    1.189148   -1.534869
C      2.401135   -2.454522   -0.227201
C     -1.674256   -0.174969   -0.477197
C      0.147907   -1.625645    0.066476
C      1.986724   -0.022834   -0.392973
C     -0.858107   -0.640339    0.465848
C      2.610382    0.800450    0.428319
C     -2.757589    0.814488   -0.243997
C      2.610243    0.127826    1.715315
C      1.577893   -1.254308    0.272175
O     -3.730517    0.161321    0.546907
O      3.139133    0.633799    2.769788
O      1.971808   -1.090490    1.605365
H     -1.722951   -2.180661    2.218415
H     -0.440604   -1.626951    3.338208
H     -2.080074   -0.986983    3.580380
H      3.761525    3.449755   -1.370865
H      2.021827    3.099988   -1.307788
H      3.161151    1.810160   -1.976666
H     -5.356961    2.199743   -1.955757
H     -4.124239    3.211913   -1.055578
H     -5.038652    1.920518   -0.223856
H      1.465058   -3.603295   -1.833357
H      1.756207   -1.870853   -2.239440
H      3.112814   -3.015670   -2.144457
H     -0.182152    0.373057    2.279161
H     -1.880840    0.592538    1.888296
H      2.794622    2.912886    0.869893
H      4.287284    2.056457    0.395056
H     -2.782308    1.606272   -2.290021
H     -3.976180    0.306814   -1.968781
H      2.034557   -3.324037    0.361701
H      3.474547   -2.324562    0.014601
H     -1.557465   -0.534737   -1.512853
H     -0.017783   -2.563896    0.677279
H      0.023989   -1.943407   -0.970700
H      1.829942    0.256346   -1.445189
H     -2.450912    1.708494    0.303432
H     -3.498374   -0.760775    0.742179
