43

C     -1.016133   -3.383931   -1.161621
C     -1.885098    2.059454   -0.420094
C     -2.944192    0.140421    0.461517
C      3.236430   -1.054500    0.388467
C      2.109608    0.919941   -0.193039
C     -3.011614    2.323688   -1.193509
C     -4.060124    0.406560   -0.307279
C      4.094171   -0.883836   -0.676215
C      2.974208    1.096807   -1.270165
C     -1.827907    0.967645    0.419707
C      2.213260   -0.150478    0.661300
C     -4.113846    1.496694   -1.143804
C      3.984556    0.193216   -1.529540
C     -0.673948    0.661689    1.252812
C      0.022685    1.528913    1.973570
C      1.098899    0.806555    2.657480
C     -0.203801   -1.481795    0.152862
C      1.319255   -0.402551    1.817486
C     -0.095742   -0.711815    1.398918
O     -5.259949    1.751202   -1.917578
O      4.840623    0.395782   -2.618523
O     -0.261542    2.895979    2.038193
O      1.660631    1.172348    3.700779
O      0.356521   -1.111807   -0.908710
O      1.846468   -1.412492    2.595497
O     -0.750129   -1.293104    2.473498
O     -0.937585   -2.669181    0.082195
H     -0.211662   -4.126747   -1.270535
H     -1.045561   -2.672699   -2.010017
H     -1.980477   -3.926135   -1.144299
H     -1.005156    2.703969   -0.451079
H     -2.885285   -0.722271    1.132096
H      3.347279   -1.916482    1.048475
H      1.337405    1.643119   -0.028553
H     -2.998304    3.189719   -1.833313
H     -4.925351   -0.255779   -0.261767
H      4.893957   -1.588756   -0.891245
H      2.868337    1.957379   -1.934914
H     -5.993564    2.332909   -1.520932
H      5.580527   -0.255118   -2.813653
H     -1.203314    3.250885    1.886271
H      1.663045   -2.286896    2.143223
H     -0.157579   -1.588501    3.200779
