135

C     12.293757    1.840766   -0.075613
C     -6.763099    3.563324   -2.689187
C      8.015579    2.553393    0.254904
C     -7.621214   -4.151193    1.399451
C      1.171519    1.094380   -0.143788
C      4.969086    1.343413   -1.300871
C      1.422616   -2.282852   -0.789594
C      2.908867   -2.353370   -0.737306
C     11.111137    0.265537   -1.573781
C     -0.306101   -1.349578    2.083936
C      3.471387    0.387890    1.733358
C      0.519979   -0.095996    1.902108
C      4.504010    1.206158    1.075228
C      9.794044    0.994799   -1.734141
C     -5.394810    1.572058   -2.038445
C     -0.761776   -1.358857   -0.310480
C      5.797321   -1.437596   -1.073499
C     -5.019309   -0.001225    4.865675
C     10.457430    0.520647    0.830959
C     11.591360    0.487162   -0.161471
C     -5.365163    2.956076   -2.602266
C      7.614837    1.349390   -0.529850
C     -8.629883   -3.456054    0.531542
C      0.721945   -1.333460   -0.194661
C     -1.427584   -1.288445    1.035821
C      3.388188   -0.952178   -0.403069
C      2.706743   -0.585430    0.925787
C      4.833466   -0.875151   -0.115361
C      7.112573   -0.932450   -0.454368
C     -4.285753    1.432119   -1.009877
C     -4.773831   -0.549221    3.453290
C      6.726852    0.398535    0.213862
C     -4.515019    3.900961   -1.800361
C     -8.667670   -4.014585   -0.875094
C     -3.019902    1.929738   -1.626712
C     -6.010493   -0.218492    2.644971
C     -3.093599    3.461465   -1.669434
C     -7.608285   -3.439699   -1.754121
C     -7.347455   -1.951915   -1.487767
C     -5.710582   -0.657966    1.201421
C     -4.489361    0.129190    0.808285
C     -7.224068   -1.790138   -0.009194
C     -3.374795   -0.385545    1.694049
C      1.299925   -0.215824    0.604174
C      5.254481    0.569022   -0.035980
C      8.803956    0.405626   -0.795619
O     -3.918807   -0.289872    5.671368
O     -4.520563    5.131020   -2.491159
O     -9.934195   -3.932995   -1.428620
O     -2.837046    1.440293   -2.930519
O     -7.072324   -0.937977    3.160892
O     -2.263539    3.957091   -2.664917
O     -6.387835   -4.092715   -1.484155
O     -6.123572   -1.674591   -2.088026
O      9.317492   -0.089850    0.373978
O     -8.491980   -2.070288    0.529608
O     -2.110243   -0.097703    1.267078
O     -4.205772    0.126142   -0.529490
O     -3.644081    0.073749    2.982751
O     -6.803996   -0.513827    0.397106
O      8.076482   -0.658531   -1.385475
H     11.790230    2.584310   -0.717107
H     12.173617    2.229221    0.978254
H     13.354236    1.702521   -0.281487
H     -6.661764    4.585031   -3.110214
H     -7.178097    3.691272   -1.664026
H     -7.426607    2.954783   -3.334357
H      8.013403    2.290279    1.331991
H      8.947618    2.993531   -0.107190
H      7.224982    3.321141    0.128446
H     -6.803664   -4.640244    0.807567
H     -8.093634   -4.994534    1.978422
H     -7.156578   -3.497112    2.161437
H      1.701773    1.864010    0.450205
H      0.072969    1.298485   -0.193794
H      1.531409    1.057292   -1.173080
H      5.411308    2.368535   -1.121361
H      3.873509    1.541053   -1.336235
H      5.366887    0.884330   -2.204476
H      0.923623   -3.069954   -1.355185
H      3.147124   -3.061169    0.109133
H      3.345729   -2.735470   -1.674318
H     10.886232   -0.824322   -1.691340
H     11.865230    0.607593   -2.311276
H     -0.714549   -1.449415    3.100734
H      0.340241   -2.239271    1.905193
H      2.737654    1.100222    2.216232
H      3.948737   -0.107299    2.632389
H     -0.113939    0.797350    1.872871
H      1.173035   -0.037191    2.797292
H      4.047845    2.192592    0.766623
H      5.269725    1.522724    1.844360
H      9.453789    0.767318   -2.785869
H      9.920808    2.093381   -1.657201
H     -6.360235    1.402395   -1.520544
H     -5.219366    0.853322   -2.854843
H     -1.045675   -0.450783   -0.880562
H     -1.113553   -2.244096   -0.879295
H      5.872930   -2.560760   -1.048626
H      5.686267   -1.128878   -2.111393
H     -5.941711   -0.432579    5.299902
H     -5.154133    1.101742    4.781504
H     10.800191   -0.084067    1.722305
H     10.290654    1.540549    1.247086
H     12.367483   -0.285251    0.117152
H     -4.962419    2.983726   -3.656121
H      7.239147    1.592540   -1.559141
H     -9.639455   -3.668115    0.990639
H     -2.080478   -2.171232    1.231039
H      3.038503   -0.310073   -1.229507
H      2.636892   -1.543307    1.524590
H      5.021304   -1.317325    0.883527
H      7.447715   -1.609222    0.345439
H     -4.554509    2.135275   -0.185040
H     -4.671124   -1.645424    3.487734
H      6.988872    0.410432    1.270235
H     -4.976192    4.129299   -0.801381
H     -8.438881   -5.114265   -0.766264
H     -2.116486    1.687146   -1.069770
H     -6.157596    0.863775    2.621104
H     -2.715607    3.860960   -0.689637
H     -7.844318   -3.602735   -2.815012
H     -8.168744   -1.337706   -1.921769
H     -5.394537   -1.729041    1.316876
H     -4.698316    1.181060    1.182410
H     -6.569524   -2.593341    0.386105
H     -3.527180   -1.503336    1.749126
H     -3.192422   -0.740179    5.177695
H     -5.222623    5.746873   -2.113669
H    -10.582825   -3.607945   -0.728170
H     -2.511567    2.195289   -3.496211
H     -7.454313   -0.401658    3.916746
H     -1.785021    4.785837   -2.393499
H     -6.402740   -5.016365   -1.878913
H     -5.422617   -2.217905   -1.661815
