42

C      1.554060   -2.723995    0.080534
C     -1.137093   -2.276757    0.263436
C      2.555502    1.401552   -0.800166
C      3.547465    0.256441    1.077448
C     -2.883118    0.747962   -1.641521
C      3.740973    2.100952   -0.952640
C      4.731058    0.949873    0.930851
C     -4.216317    1.079171   -1.581560
C     -2.852028    0.241306    0.641141
C      1.076396   -1.446208   -0.548095
C     -0.426426   -1.462038   -0.804069
C      2.462593    0.476924    0.219757
C     -2.155405    0.321384   -0.549090
C      4.803363    1.869818   -0.095086
C     -4.893300    0.993569   -0.389330
C     -4.189394    0.570007    0.717491
C      1.200461   -0.265897    0.379659
C     -0.747819   -0.004919   -0.711370
O      5.980799    2.577225   -0.261298
O     -6.247583    1.326047   -0.310275
O     -4.906765    0.493912    1.913961
O      0.067812    0.495554    0.294062
H      2.657062   -2.791980   -0.134784
H      1.098803   -3.595070   -0.430615
H      1.452460   -2.759686    1.169669
H     -0.998805   -3.358573    0.108033
H     -2.223449   -2.085229    0.144758
H     -0.850172   -1.965769    1.273904
H      1.723295    1.578634   -1.467261
H      3.431215   -0.480215    1.866587
H     -2.404140    0.838499   -2.622280
H      3.798256    2.829058   -1.764610
H      5.569197    0.777267    1.596106
H     -4.770879    1.411178   -2.445802
H     -2.319462   -0.085473    1.508781
H      1.647687   -1.245627   -1.453795
H     -0.672803   -1.826943   -1.820815
H      1.213524   -0.702434    1.422581
H     -0.386752    0.457277   -1.665252
H      6.098203    3.465541    0.227176
H     -6.720541    1.630280   -1.143879
H     -4.407932    0.187381    2.727494
