135

C     12.495850    2.011636    0.469731
C     -9.355756   -2.357750    1.638107
C      9.103485   -1.630584    0.071051
C     -6.112669    5.565983   -1.245427
C      1.721235    0.819186   -2.120921
C      5.774248    1.113521   -0.640276
C      0.995375    0.368170    1.153746
C      2.358316    0.166865    1.642212
C     10.154746    2.634091    1.061983
C     -0.512850   -1.083411   -2.371919
C      3.834571   -0.926332   -1.689659
C      0.856777   -1.506910   -1.815386
C      5.223688   -1.255411   -1.227851
C      9.254408    1.880481    0.071739
C     -6.992066   -1.889979    2.073942
C     -0.824671    0.402002   -0.452432
C      5.326224    0.368510    2.049019
C     -4.261587   -1.017261   -3.974397
C     10.916659    0.336751    1.333848
C     11.347893    1.795825    1.438861
C     -7.943294   -2.628778    1.185339
C      8.193752   -0.397741   -0.028503
C     -5.399465    4.531023   -0.415605
C      0.594028    0.157833   -0.086440
C     -1.367387   -0.791644   -1.153544
C      3.335198    0.152137    0.510276
C      2.837795   -0.776283   -0.591572
C      4.646556   -0.390757    0.962941
C      6.792180    0.061515    1.858840
C     -5.573402   -2.248124    1.611945
C     -5.027739   -1.538439   -2.762897
C      6.891106   -0.770911    0.575109
C     -7.716262   -4.117801    1.185431
C     -5.876026    4.519701    1.015710
C     -5.404144   -3.721491    1.917059
C     -5.717866   -0.373251   -2.137329
C     -6.287296   -4.497118    0.994853
C     -4.822655    3.836997    1.851485
C     -4.144634    2.824203    0.950910
C     -5.287305    0.085258   -0.819322
C     -4.560230   -0.987266   -0.060629
C     -5.161071    2.268515   -0.023050
C     -3.526688   -1.673252   -0.977945
C      1.519540   -0.318851   -1.149128
C      5.667840   -0.304292   -0.152598
C      8.679025    0.714756    0.849026
O     -5.161361   -0.235986   -4.728262
O     -8.423802   -4.619771    0.069811
O     -6.172343    5.796504    1.479742
O     -4.072485   -4.120510    1.854984
O     -7.091063   -0.762857   -2.033214
O     -5.837186   -4.300392   -0.315032
O     -5.475868    3.091600    2.853933
O     -3.645434    1.845965    1.808003
O      9.611751    0.233167    1.762020
O     -5.469485    3.263312   -0.993516
O     -2.709678   -0.697830   -1.473558
O     -5.528875   -1.974139    0.247502
O     -4.193229   -2.298152   -2.019393
O     -4.579413    1.254552   -0.747642
O      7.538192    1.167455    1.533296
H     13.278027    1.263230    0.640315
H     12.875222    3.045139    0.643360
H     12.095113    1.912191   -0.576737
H    -10.087106   -3.031542    1.116604
H     -9.504989   -2.499716    2.715892
H     -9.687281   -1.325387    1.358071
H      9.796348   -1.692180   -0.797089
H      9.576795   -1.718737    1.048003
H      8.427036   -2.529730   -0.041622
H     -6.746505    6.190086   -0.570203
H     -5.401026    6.270412   -1.717553
H     -6.705130    5.136964   -2.080809
H      0.849196    1.520264   -2.112057
H      1.837591    0.471670   -3.166834
H      2.582420    1.413621   -1.770611
H      4.930425    1.333757   -1.325800
H      5.732220    1.861155    0.163260
H      6.698946    1.298511   -1.223439
H      0.223609    0.725482    1.866464
H      2.621235    1.012198    2.327487
H      2.462656   -0.754221    2.253045
H     10.442214    3.621883    0.678875
H      9.556767    2.785186    1.979475
H     -0.912762   -1.969540   -2.861792
H     -0.321677   -0.216829   -3.006687
H      3.502145   -1.804646   -2.316911
H      3.874209   -0.066248   -2.390439
H      0.608599   -2.221167   -0.980770
H      1.490463   -1.964657   -2.572402
H      5.186034   -2.274087   -0.789542
H      5.901893   -1.183564   -2.104381
H      8.427863    2.570117   -0.156559
H      9.807177    1.593814   -0.822810
H     -7.114230   -0.811426    1.932857
H     -7.110189   -2.171798    3.158027
H     -0.958364    1.349816   -1.016618
H     -1.453802    0.546047    0.476903
H      5.030427   -0.063099    3.030446
H      5.109716    1.442968    2.065222
H     -3.876504   -1.841272   -4.578374
H     -3.496304   -0.307402   -3.613351
H     11.104328   -0.022651    0.319079
H     11.537712   -0.291275    2.017017
H     11.688708    1.972543    2.475230
H     -7.835055   -2.207947    0.169921
H      8.158001   -0.138289   -1.101812
H     -4.325887    4.805637   -0.400342
H     -1.243559   -1.678601   -0.499577
H      3.400113    1.166042    0.071342
H      2.719877   -1.775600   -0.103282
H      4.479047   -1.452961    1.256229
H      7.211889   -0.561092    2.664034
H     -4.831036   -1.629287    2.164074
H     -5.790135   -2.271504   -3.208113
H      6.762857   -1.846884    0.795102
H     -8.138644   -4.595594    2.070829
H     -6.779448    3.854772    1.024600
H     -5.731359   -3.898839    2.970587
H     -5.802949    0.463752   -2.898063
H     -6.190555   -5.580506    1.283746
H     -4.107024    4.555125    2.304986
H     -3.275340    3.271452    0.420314
H     -6.219900    0.288446   -0.194970
H     -4.067344   -0.668613    0.857315
H     -6.116945    2.026294    0.429126
H     -3.045828   -2.440865   -0.368094
H     -5.245044   -0.588756   -5.651558
H     -8.178049   -4.134420   -0.759162
H     -7.097975    5.739678    1.877197
H     -4.034975   -5.029197    2.261250
H     -7.637521    0.035213   -1.812860
H     -5.771463   -5.186820   -0.762034
H     -6.153088    2.528281    2.403134
H     -4.427041    1.320968    2.151230
