39

C     -2.093896   -1.893939   -0.336242
C     -3.026948    0.207182   -1.084039
C      3.812661   -1.942759    1.097261
C      0.151956    1.721673   -2.239633
C     -0.710718    2.558463   -0.030838
C     -1.547900    1.706594    0.849332
C      2.403897    0.071915    1.225455
C      1.573529   -1.731849   -0.147418
C      1.248476    0.908128    0.936547
C      0.792335   -0.658323   -0.901710
C     -2.224425   -0.440664    0.021929
C      2.576625   -1.129838    0.748916
C     -0.078276    1.577098   -0.950981
C     -1.094039    0.263447    0.573345
C      0.237388    0.386624   -0.051326
H     -3.094330   -2.409088   -0.145198
H     -1.394878   -2.472798    0.263435
H     -1.989114   -2.063597   -1.448255
H     -3.790784   -0.564618   -1.417005
H     -3.674314    1.025737   -0.711080
H     -2.454650    0.597765   -1.917237
H      4.684391   -1.256963    1.038514
H      3.719958   -2.403872    2.090852
H      3.938806   -2.708208    0.335217
H      0.617663    0.928565   -2.784444
H     -0.125333    2.628388   -2.736953
H     -1.305648    3.317972   -0.601633
H      0.074188    3.120520    0.555197
H     -2.623449    1.846932    0.764591
H     -1.300977    2.000235    1.903953
H      3.215656    0.458354    1.897599
H      0.950884   -2.491893    0.325201
H      2.164082   -2.293903   -0.934537
H      0.766271    1.178428    1.913255
H      1.676952    1.912923    0.607659
H      0.173017   -1.157809   -1.627524
H      1.631054   -0.186558   -1.518737
H     -2.984431   -0.449988    0.882044
H     -0.895681   -0.160274    1.608211
