42

C      2.070187   -1.242627   -2.350874
C     -0.568525   -0.056698   -2.644742
C      2.302531    1.671888    1.316223
C      3.188085   -0.423064    0.705907
C     -2.867426    0.935086   -0.745449
C      3.177537    1.768975    2.353094
C      4.090897   -0.326197    1.773292
C     -4.237704    1.054191   -0.547597
C     -2.855113   -0.861554    0.768401
C      1.232755   -0.938631   -1.170782
C     -0.277118   -0.952424   -1.491697
C      2.283098    0.584840    0.472283
C     -2.140686   -0.021221   -0.096661
C      4.093502    0.767256    2.603620
C     -4.915821    0.202941    0.318655
C     -4.195455   -0.762365    0.976655
C      1.335955    0.475535   -0.658806
C     -0.715005   -0.249899   -0.221262
O      4.989116    0.879513    3.674728
O     -6.280758    0.320366    0.516753
O     -4.886289   -1.621496    1.852450
O      0.073549    0.875515   -0.252278
H      2.700736   -0.381911   -2.628092
H      1.496970   -1.654007   -3.230123
H      2.769131   -2.088734   -2.082860
H      0.001644   -0.311731   -3.562816
H     -1.629419   -0.113547   -2.892920
H     -0.288121    0.983206   -2.403667
H      1.596877    2.501234    1.166837
H      3.276861   -1.313474    0.126920
H     -2.368156    1.608923   -1.418073
H      3.191157    2.619882    3.011945
H      4.808893   -1.110919    1.970047
H     -4.771532    1.812665   -1.071611
H     -2.322996   -1.646489    1.315131
H      1.328433   -1.628965   -0.314687
H     -0.655707   -1.964087   -1.577795
H      1.727304    1.142679   -1.482564
H     -0.319985   -0.891834    0.622872
H      5.643203    0.114622    3.816122
H     -6.731648   -0.319291    1.154906
H     -4.350957   -2.323561    2.328519
