39

C     -2.762979   -1.924550   -0.266493
C     -1.454943   -1.575488    1.754286
C      4.305726   -0.450257    0.038031
C     -0.938428    2.651325    0.992468
C     -1.663649    1.700070   -1.192261
C     -1.638494    0.215155   -1.582232
C      2.414704    0.575570   -1.060619
C      1.895563   -0.741358    0.863812
C      0.982779    0.889814   -1.255165
C      0.911147    0.395796    1.126349
C     -1.857407   -0.962368    0.489824
C      2.873268   -0.180786   -0.092752
C     -0.842508    1.760783    0.037876
C     -0.844760   -0.479776   -0.468443
C      0.088224    0.594057   -0.079510
H     -2.675352   -2.918392    0.217101
H     -2.433412   -2.082983   -1.318996
H     -3.833824   -1.654020   -0.203066
H     -2.202862   -2.386499    2.020449
H     -1.613957   -0.846853    2.599236
H     -0.490351   -2.081449    1.811346
H      4.865500   -0.339121   -0.921374
H      4.437858   -1.518357    0.356512
H      4.747370    0.199808    0.823437
H     -1.667905    3.446546    0.938633
H     -0.269677    2.576394    1.842113
H     -1.216347    2.315183   -2.007930
H     -2.665105    2.081682   -1.005324
H     -1.253735    0.032960   -2.578087
H     -2.714067   -0.087394   -1.574946
H      3.141725    1.004614   -1.772876
H      1.317977   -1.541961    0.355263
H      2.339493   -1.131878    1.786088
H      0.688994    0.300535   -2.166622
H      0.919827    1.950882   -1.579346
H      1.561891    1.317886    1.231079
H      0.406810    0.305338    2.079906
H     -2.534155   -0.081724    0.719196
H     -0.324939   -1.329187   -0.956966
