40

C      1.306982    5.851663    0.192919
C     -4.744277   -3.060058    0.428624
C      3.891200   -3.218216   -0.919866
C     -3.644569   -3.331722   -0.355908
C     -4.862334   -1.788967    0.942937
C      3.819518   -3.012958    0.440178
C      3.254113   -2.325196   -1.752447
C     -2.717517   -2.349637   -0.597851
C     -3.941069   -0.799547    0.707167
C      3.121500   -1.932772    0.939792
C      2.552770   -1.238770   -1.235318
C     -0.989073    2.241142   -0.083254
C     -2.853078   -1.088781   -0.076092
C      2.476516   -1.026652    0.125037
C      0.385959    2.124167    0.452786
C     -1.811069   -0.090489   -0.384562
C      1.752310    0.098022    0.698769
C      1.130153    3.399205    0.088341
O     -0.831720   -0.396334   -1.105237
O      1.718183    0.238998    1.946694
O      2.180291    3.338391   -0.591342
O      0.668000    4.622878    0.493908
O     -1.864642    1.195967    0.094489
O      1.087487    1.035359   -0.094375
H      0.897429    6.595054    0.924462
H      0.938597    6.168884   -0.808341
H      2.405371    5.774186    0.246866
H     -5.485041   -3.842515    0.622742
H      4.435467   -4.064065   -1.359162
H     -3.543316   -4.338869   -0.768267
H     -5.714135   -1.549927    1.560524
H      4.325231   -3.723495    1.077867
H      3.324167   -2.506497   -2.813960
H     -1.855506   -2.622593   -1.233599
H     -4.057113    0.211213    1.130067
H      3.067291   -1.774535    2.010151
H      2.066701   -0.559446   -1.898549
H     -0.894026    2.578183   -1.146148
H     -1.465055    3.138227    0.431381
H      0.468302    2.030503    1.559129
