40

C      1.097072    3.525306    0.762702
C      6.458638    0.529437   -0.477132
C     -6.647557   -2.047818    0.501520
C      5.606730    1.137315   -1.371438
C      5.985630   -0.395274    0.430740
C     -5.812964   -2.595714    1.445777
C     -6.137799   -1.130811   -0.410030
C      4.261605    0.786243   -1.324948
C      4.635022   -0.715812    0.441852
C     -4.487623   -2.230972    1.477008
C     -4.792699   -0.787837   -0.345983
C      0.097730   -0.122389   -1.376009
C      3.766371   -0.135468   -0.426103
C     -3.938083   -1.328168    0.596300
C     -0.579888    0.225456   -0.072904
C      2.338609   -0.448389   -0.443222
C     -2.531776   -0.981849    0.677832
C     -0.395582    1.658337    0.268070
O      1.920163   -1.290217    0.386197
O     -1.834878   -1.524954    1.567956
O     -1.379239    2.411879    0.403955
O      0.876697    2.167837    0.437820
O      1.477022    0.153313   -1.332953
O     -1.959570   -0.076028   -0.198383
H      2.163938    3.781434    0.647328
H      0.521141    4.181095    0.094311
H      0.754525    3.700904    1.809732
H      7.512347    0.765544   -0.470272
H     -7.703083   -2.312291    0.445705
H      5.974595    1.863284   -2.085083
H      6.670416   -0.855901    1.118463
H     -6.210196   -3.304858    2.149666
H     -6.789314   -0.686677   -1.166685
H      3.556745    1.242735   -2.013202
H      4.262853   -1.434713    1.146516
H     -3.821945   -2.659980    2.220641
H     -4.373384   -0.080889   -1.039475
H     -0.325526    0.552399   -2.166125
H     -0.062073   -1.185597   -1.648060
H     -0.154668   -0.349913    0.760150
