48

C     -6.087300   -2.039548    0.217393
C     -6.947386    0.242203   -0.223836
C      8.563062   -2.022715   -0.067197
C      2.170906   -0.176151   -0.201991
C      2.814798    2.009204    0.406688
C      4.562480    0.429144   -0.456745
C      0.868789    0.116206    0.146900
C      1.514868    2.295699    0.753712
C      5.312437   -0.178641    0.730283
C     -3.995500    0.096137    0.196874
C     -1.970445    1.113130    1.037290
C     -6.019459   -0.861653   -0.688928
C      3.158820    0.759409   -0.078958
C     -2.598564    0.611943   -0.212895
C      0.491251    1.347069    0.633306
C      6.692846   -0.461571    0.273886
N     -4.688716   -0.380572   -0.952086
O     -2.778604    1.643047   -1.134001
O      7.363183    0.486708   -0.214335
O      7.235193   -1.708387    0.369313
O     -0.749581    1.699467    0.994469
Cl     0.691365    0.000000    0.000000
H     -6.014009   -2.978523   -0.390591
H     -7.140177   -2.082571    0.631671
H     -5.380913   -2.078759    1.038381
H     -7.025246    0.314834    0.867250
H     -6.628169    1.191242   -0.705599
H     -7.963858    0.014097   -0.605572
H      8.800754   -1.287991   -0.870689
H      8.501431   -3.033930   -0.504925
H      9.249603   -1.940450    0.788428
H      2.449336   -1.160120   -0.584900
H      3.631421    2.732450    0.492743
H      4.520468   -0.380571   -1.228572
H      5.113091    1.319821   -0.761662
H      0.156460   -0.676894    0.020037
H      1.340253    3.297657    1.123787
H      4.830085   -1.102470    1.111149
H      5.318736    0.567549    1.559066
H     -3.895028   -0.733024    0.924095
H     -4.544742    0.900105    0.741150
H     -2.746941    1.739848    1.556605
H     -1.889799    0.209995    1.720051
H     -6.421058   -1.204019   -1.689819
H     -2.076596   -0.258668   -0.618265
H     -4.628706    0.184128   -1.800460
H     -2.469473    1.426137   -2.029613
H     -0.691365    0.000000    0.000000
