36

C      0.920171   -2.048881   -0.381015
C     -0.248195   -2.277888    0.533076
C      1.948045    0.846626   -0.257901
C      1.257325    2.013841    0.366462
C     -1.820172    0.188239    0.719131
C     -2.033764    1.512814   -0.006586
C      2.179717   -1.614867    0.271100
C     -1.505063   -2.126989   -0.258337
C      2.219263   -0.211340    0.759665
C     -2.386914   -0.990578    0.046081
C      0.182563    2.651211   -0.449565
C     -0.883425    1.769386   -0.973721
Br     2.681257   -2.863100    1.662809
Br    -1.091924   -2.112687   -2.171499
Br     4.000539    0.038890    1.539931
Br    -3.195571   -0.385152   -1.632429
Br    -0.533705    4.148891    0.551857
Br    -1.612441    2.522657   -2.623878
H      0.632353   -1.324655   -1.157065
H      1.096108   -3.009928   -0.923995
H     -0.147676   -3.348962    0.896052
H     -0.206272   -1.700144    1.477159
H      2.973440    1.219162   -0.577769
H      1.510234    0.489516   -1.207231
H      1.995962    2.856237    0.573669
H      0.892156    1.779009    1.411472
H     -2.341656    0.330581    1.710063
H     -0.762769    0.154818    0.956823
H     -2.956017    1.506597   -0.599474
H     -2.097102    2.358114    0.703818
H      2.989133   -1.706197   -0.513192
H     -2.102039   -3.084177   -0.138912
H      1.499655   -0.105762    1.601004
H     -3.282981   -1.365532    0.630623
H      0.707519    3.124621   -1.333744
H     -0.477753    0.765629   -1.204481
