39

C     -4.050273    0.125443    1.248517
C     -4.319196    1.800194   -0.686387
C      5.432136    0.858382   -1.004265
C     -0.424447   -0.486178    1.541691
C     -2.232988   -1.423014   -0.582386
C     -2.915082   -0.154361   -0.949684
C     -0.739682   -1.331700   -0.761331
C      3.070103    1.443380   -0.856174
C      3.636613   -0.839018   -0.259084
C      1.664527    1.167776   -0.580264
C      2.226105   -1.109732    0.029599
C     -3.712204    0.523143   -0.141835
C      3.963976    0.508026   -0.698447
C     -0.182588   -0.247860    0.096563
C      1.277198   -0.017756   -0.170039
H     -3.279741    0.416237    1.983744
H     -4.198387   -0.974203    1.342057
H     -5.003950    0.632511    1.523962
H     -4.712064    1.605767   -1.701965
H     -3.484741    2.523567   -0.747568
H     -5.073606    2.189163    0.007015
H      6.040698    0.220762   -0.351651
H      5.650165    0.636796   -2.059127
H      5.624491    1.904161   -0.752859
H     -0.913392    0.397865    2.034453
H     -1.098787   -1.344964    1.704993
H      0.506201   -0.736882    2.108091
H     -2.562726   -1.709548    0.427003
H     -2.579989   -2.214141   -1.303664
H     -2.732705    0.224989   -1.955667
H     -0.251526   -2.318582   -0.545248
H     -0.545152   -1.151230   -1.845882
H      3.414793    2.415772   -1.195279
H      4.316107   -1.156938    0.606559
H      3.945499   -1.547700   -1.116412
H      0.944349    1.962209   -0.720699
H      1.920797   -2.027933   -0.558994
H      2.144786   -1.449823    1.133250
H     -0.765316    0.685421   -0.178523
