23

C     -0.342159   -0.998793   -0.077922
C     -0.506379   -0.009004    1.062387
C     -1.179236   -0.441655   -1.204125
C     -1.667174    0.842845    0.784153
C     -2.173149    0.501112   -0.584249
C      1.456965    0.317078   -1.132929
C      1.147341    1.268052   -0.262230
C      1.149862   -0.959602   -0.438056
C      0.826000    0.673330    1.065907
C      1.705253   -0.594828    0.953695
Cl    -2.055353   -1.768689   -1.998089
Cl     2.089097    0.398494   -2.758205
Cl     1.125482    2.973321   -0.638578
Cl     1.781801   -2.386819   -1.118455
Cl     1.187759    1.650812    2.426473
Cl     3.406516   -0.201353    0.899753
Cl     1.273557   -1.789395    2.162619
O     -1.688120    1.774719   -0.219197
H     -0.610656   -2.019479    0.194790
H     -0.627707   -0.557641    2.005275
H     -0.570816    0.098712   -1.954942
H     -2.476383    0.862342    1.571913
H     -3.252502    0.366439   -0.739985
