39

C     -5.123845   -0.648675    0.527898
C     -4.394174    1.793263    0.208508
C      5.642915    0.408525    0.697364
C     -0.548881   -1.559247    0.125718
C     -2.021499    0.810644   -1.148376
C     -3.026808   -0.091414   -0.620504
C     -0.662854    0.839031   -0.586989
C      3.376669    1.118775    0.420655
C      3.857300   -1.202409   -0.072813
C      1.974568    0.881711    0.084819
C      2.438347   -1.476489   -0.390887
C     -4.135866    0.334440    0.012553
C      4.230283    0.133165    0.347981
C      0.104645   -0.438592   -0.652913
C      1.526889   -0.295575   -0.289495
H     -5.116777   -1.513337   -0.191950
H     -4.915153   -0.964083    1.558096
H     -6.175359   -0.249734    0.481170
H     -3.468314    2.315246    0.573319
H     -5.143487    1.922796    1.002598
H     -4.776745    2.284490   -0.702105
H      5.746132    1.282846    1.372029
H      6.192722    0.669171   -0.245121
H      6.135856   -0.453904    1.182002
H      0.171274   -2.085318    0.813910
H     -1.262677   -1.081804    0.832278
H     -0.957460   -2.363118   -0.496982
H     -1.894966    0.675786   -2.279371
H     -2.419481    1.884012   -1.122739
H     -2.923263   -1.152788   -0.749655
H     -0.083958    1.568776   -1.245286
H     -0.615160    1.194432    0.470141
H      3.670362    2.136570    0.728452
H      4.483146   -1.447881   -0.980874
H      4.250332   -1.959487    0.684560
H      1.301595    1.708369    0.156289
H      2.078279   -2.216327    0.385908
H      2.374783   -1.934192   -1.407296
H      0.110628   -0.827674   -1.728719
