59

C     -2.669264    0.118740   -1.375332
C      1.192552    0.153685   -2.007395
C     -4.331804    1.957737    0.347437
C     -0.260039    1.609261   -0.264461
C      4.279021    2.066191   -0.225926
C     -2.825597    1.931665    0.220981
C      1.269720    1.636577   -0.135866
C      3.863519    0.813687    0.470193
C     -2.418783   -1.765443    1.162173
C     -4.059743   -0.106176    1.738518
C      2.540721   -2.558904   -0.695471
C     -0.603266   -3.287580    0.832405
C     -0.921921   -1.829309    1.205679
C     -3.009116   -0.434271    1.018910
C     -4.647922    1.213410    1.598543
C      2.065934   -1.848499    0.496622
C     -0.903201    0.459019    0.380988
C      3.347799   -1.445572   -0.284710
C      4.034321    1.755156   -1.648829
C     -0.281382   -0.891056    0.166877
C      1.173412   -0.683424    0.408105
C     -2.381771    0.494133    0.049586
C      1.692667    0.262374   -0.621684
C      3.148259   -0.010191   -0.594185
Cl    -1.216790   -3.689331   -0.775793
O     -5.383399    1.718984    2.467844
O      4.038456    2.652051   -2.552201
O      3.817562    0.391055   -1.777286
H     -2.192674   -0.788312   -1.726129
H     -2.464929    0.945162   -2.055758
H     -3.781985   -0.069381   -1.429626
H      1.388615    1.164878   -2.494023
H      0.121886    0.004283   -2.150323
H      1.807200   -0.522089   -2.674162
H     -4.824043    1.400357   -0.475964
H     -4.695038    3.006081    0.395602
H     -0.558859    1.750238   -1.344883
H     -0.596887    2.540802    0.240149
H      5.363149    2.270679   -0.046618
H      3.743646    2.968042    0.119440
H     -2.554709    2.478404   -0.696935
H     -2.416456    2.383644    1.146470
H      1.608010    2.423044   -0.828191
H      1.496488    1.824121    0.911034
H      3.277329    0.948823    1.376935
H      4.776516    0.224228    0.776361
H     -2.798009   -2.331022    2.028803
H     -2.751402   -2.356403    0.258243
H     -4.511854   -0.799602    2.447054
H      2.957567   -3.589966   -0.486893
H      1.831275   -2.615720   -1.537977
H     -1.237849   -3.882512    1.557224
H      0.415854   -3.583215    1.029566
H     -0.509293   -1.649973    2.204697
H      2.338162   -2.254119    1.517822
H     -0.864669    0.625568    1.501217
H      4.335990   -1.661469    0.194315
H     -0.479470   -1.363654   -0.787464
H      1.226494   -0.174889    1.424295
