53

C      6.405074    1.396506   -0.663474
C     -2.043415   -2.365229   -1.696757
C     -4.154817   -2.905118   -0.727223
C     -4.232144    3.137911    1.569702
C      6.463768   -0.020378   -0.127247
C      5.648753   -0.175816    1.118051
C      4.182107    0.080339    0.986049
C      3.468412   -0.878064    0.088209
C     -4.912468    0.997062    0.279051
C     -4.447952    0.025100   -0.776374
C     -2.570668    1.577406    0.598839
C      1.191039   -0.684628    1.117667
C      1.451646   -0.028163   -1.122473
C     -3.002787   -1.899093   -0.945133
C     -3.831177    1.888117    0.800847
C      2.014768   -0.490204    0.015375
C     -3.172945   -0.663743   -0.220791
C     -2.159828    0.387566   -0.143676
C     -0.148021   -0.428266    1.078731
C      0.077542    0.231770   -1.175476
C     -0.753113    0.042760   -0.093411
O     -0.966014   -0.623278    2.191644
O     -0.380620    0.707424   -2.415590
H      7.363295    1.923837   -0.458556
H      5.621661    1.990788   -0.138451
H      6.275887    1.366756   -1.761319
H      7.534330   -0.196022    0.182915
H      6.267559   -0.734349   -0.926638
H      5.768966   -1.232007    1.522614
H      6.060774    0.510188    1.893553
H      3.725634   -0.078997    2.012398
H      3.974094    1.121230    0.655401
H     -2.189746   -3.418629   -2.069712
H     -1.146764   -1.917582   -2.028119
H     -3.821940   -3.916723   -0.975030
H     -4.311525   -2.910519    0.380465
H     -5.023467   -2.642937   -1.326944
H     -3.547705    3.960689    1.224620
H     -4.115389    3.033059    2.639189
H     -5.258330    3.433378    1.219219
H      3.911078   -0.766723   -0.948565
H      3.534189   -1.934221    0.426207
H     -5.352237    0.413144    1.156916
H     -5.740455    1.613602   -0.125756
H     -5.246671   -0.697573   -0.911710
H     -4.179671    0.601742   -1.691107
H     -1.790827    2.248977    1.005922
H      1.678398   -1.058723    2.026520
H      2.071244    0.140261   -2.013005
H     -3.571454   -0.909685    0.855643
H     -2.235059    0.829848   -1.284526
H     -0.583532   -0.953832    3.058836
H      0.200524    0.871044   -3.197794
