32

C     -2.242305   -1.528705   -0.272931
C      0.389676   -2.407510   -0.339645
C     -3.817821    0.713770    0.274170
C     -0.544234    2.395182   -0.027778
C     -1.574971   -0.214842   -0.343153
C      0.759768   -0.997390   -0.185922
C     -2.337387    0.841437    0.473884
C      0.311938    1.352929   -0.058847
C     -0.167475   -0.019241   -0.191864
C      2.673141    0.541477    0.072419
C      2.187489   -0.664833   -0.049182
C      1.750265    1.657927    0.075901
C      4.092780    0.837435    0.205629
O      3.159651   -1.691714   -0.042251
O      2.109527    2.855488    0.186412
O      4.883609   -0.151243    0.200490
O      4.581727    2.113729    0.332284
O     -1.917291    2.085659   -0.125628
H      1.348997   -3.011759   -0.162003
H     -0.277075   -2.844504    0.382879
H     -3.374503   -1.353204   -0.487634
H     -2.015841   -2.233000   -1.082925
H     -2.344908   -1.970169    0.741671
H      0.202471   -2.687526   -1.420472
H     -4.356091    1.613836    0.625383
H     -4.174241   -0.121796    0.932134
H     -4.112577    0.524092   -0.757839
H     -0.143773    3.368475    0.066159
H     -1.796933    0.139427   -1.416108
H     -2.031054    0.880039    1.519689
H      3.221385   -2.339035    0.742745
H      5.556059    2.315570    0.132333
