59

C     -2.429689    0.581959    1.685297
C      1.831662    0.775031    1.371145
C     -4.596997    1.839533    0.285753
C     -0.312730    1.747493   -0.187466
C      5.252518    1.086599   -0.911057
C     -3.222956    1.790856   -0.290180
C      1.106144    1.680030   -0.767390
C      4.195656    0.872007    0.172456
C     -2.486168   -1.758701   -0.877457
C     -4.508809   -0.640290   -0.093879
C      2.865357   -2.114092    0.626678
C     -1.166543   -3.007474    0.743963
C     -1.094545   -1.980613   -0.394836
C     -3.199702   -0.623857   -0.267226
C     -5.202891    0.507530    0.518510
C      1.829394   -1.892931   -0.372793
C     -1.083752    0.503883   -0.423838
C      3.264727   -1.306630   -0.513122
C      4.400935    1.381705   -2.085964
C     -0.378790   -0.760505    0.091869
C      0.982679   -0.707168   -0.504867
C     -2.460526    0.607162    0.186697
C      1.759054    0.507316   -0.071492
C      3.115731    0.166071   -0.615673
Cl    -1.863730   -4.523127    0.134837
O     -6.229419    0.339233    1.182903
O      4.686539    2.189785   -2.985309
O      3.275207    0.589541   -1.953260
H     -2.722801   -0.411985    2.063834
H     -3.124610    1.333677    2.110897
H     -1.379940    0.789017    2.021663
H      1.633811    1.870834    1.580808
H      1.169378    0.224354    2.029501
H      2.869362    0.641658    1.804894
H     -5.302066    2.355336   -0.429252
H     -4.632763    2.387059    1.259661
H     -0.263720    2.026231    0.866459
H     -0.831997    2.569738   -0.723324
H      5.933214    1.911365   -0.654276
H      5.772161    0.125211   -1.098276
H     -3.315662    1.782106   -1.406181
H     -2.717740    2.754252   -0.043811
H      1.627909    2.595757   -0.463220
H      1.046631    1.541908   -1.863382
H      3.887298    1.869508    0.534641
H      4.668516    0.237897    0.934883
H     -2.522516   -1.702288   -2.000893
H     -3.116474   -2.668272   -0.644497
H     -5.062346   -1.511535   -0.408281
H      2.676903   -1.739010    1.643723
H      3.295343   -3.158018    0.659403
H     -0.197265   -3.188205    1.202119
H     -1.859535   -2.573980    1.492926
H     -0.518635   -2.444300   -1.248944
H      1.587240   -2.732571   -1.090124
H     -1.219406    0.373969   -1.519576
H      3.872745   -1.768844   -1.315345
H     -0.388498   -0.780896    1.198605
H      0.807106   -0.560323   -1.618277
