38

C      0.384258   -1.553787   -2.588769
C      3.905806    1.546130    1.986974
C      3.995672    1.892941    0.526885
C      3.120792    0.554851    2.313820
C     -3.606313    0.105581    2.106648
C     -4.419613    1.034654    1.480737
C      3.187136    1.148556   -0.226593
C      2.410383   -0.179861    1.402669
C     -2.743621   -0.540736    1.279758
C     -4.339749    1.368145    0.274368
C      1.981747   -0.857080   -1.002803
C     -1.670456   -0.927882   -0.931287
C      0.608517   -1.212941   -1.115033
C      2.388252    0.090930    0.147121
C     -2.724019   -0.276581   -0.045182
C     -3.484552    0.693871   -0.631826
Cl    -3.261632    1.226376   -2.246952
N     -0.315995   -0.369291   -0.566212
Cl     0.682891    0.000000    0.000000
H     -0.555576   -2.080624   -2.743279
H      1.246354   -2.095805   -2.938926
H      0.395161   -0.552854   -3.157919
H      4.641343    2.063260    2.563399
H      4.672836    2.666660    0.275607
H      3.101310    0.245346    3.412660
H     -3.632412   -0.025146    3.174395
H     -5.275712    1.446959    2.135654
H      3.102693    1.453125   -1.341809
H      1.940758   -1.135012    1.762396
H     -1.983609   -1.210577    1.705950
H     -4.751356    2.377349   -0.091584
H      2.485399   -0.599708   -1.961395
H      2.630961   -1.806755   -0.678096
H     -1.909091   -0.797086   -1.955394
H     -1.648237   -2.037875   -0.683579
H      0.425102   -2.254077   -0.610755
H     -0.302536    0.598947   -1.031647
H     -0.682891    0.000000    0.000000
