39

C      1.836094   -0.314769    0.667174
C      0.770273    0.642492    0.197310
C     -1.083429   -1.007893    0.113396
C     -2.346044   -0.640638    0.150558
C     -0.298674   -0.024048   -0.622878
C     -2.463395    0.616288   -0.565442
O      2.457704   -0.947701   -0.402691
O      1.386352    1.596867   -0.612548
O     -0.605446   -2.169192    0.700815
O     -3.407797   -1.346524    0.778830
O     -3.563395    1.240848   -0.712274
O     -1.212061    0.972677   -1.026120
C      2.096921   -1.171413    0.149974
C      1.102131   -0.045465    0.073222
C     -1.169338    0.693550    0.463630
C     -2.184079    0.334289   -0.291252
C     -0.263374   -0.459653    0.582599
C     -2.019396   -1.046261   -0.710516
O      3.327593   -0.707423   -0.304752
O      0.973393    0.399367   -1.235966
O     -1.022974    1.963829    1.031294
O     -3.256903    1.166402   -0.633014
O     -2.820352   -1.720284   -1.453373
O     -0.841706   -1.473416   -0.152249
Mg     0.000000    0.000000    0.000000
H      2.599832    0.292640    1.198984
H      1.457806   -1.063926    1.378088
H      0.288628    1.174041    1.021638
H      0.114036   -0.474184   -1.562850
H      3.256536   -0.431444   -0.732983
H      0.812978    1.884467   -1.362440
H      1.757924   -1.955013   -0.575139
H      2.186631   -1.575883    1.156411
H      1.440630    0.800953    0.686041
H     -0.207294   -0.797447    1.643479
H      3.420608    0.238055    0.022006
H      1.841367    0.848550   -1.463287
H     -0.690965    2.758368    0.497230
H     -3.670815    1.748892    0.082762
