53

C     -3.346271   -1.651140    0.516722
C     -2.513561   -2.359503    1.538831
C      5.158042   -0.045182    0.203489
C      4.272601   -0.661090   -0.885991
C      4.787808    1.312421   -0.351525
C     -1.441102    2.535908    1.389841
C     -2.529924    3.179244    0.860670
C     -2.657246   -1.529648   -0.820682
C     -1.060194   -2.156007    1.452688
C     -0.682795   -0.456074   -1.882735
C      0.694934    0.049009   -1.703873
C      0.093274    0.618881    1.527065
C     -2.878041    1.290042   -0.591301
C      2.356237    0.879000   -0.182608
C      3.588602    0.663188   -1.022033
C     -1.084864    1.272599    0.918254
C     -3.247938    2.550508   -0.133105
C     -1.783959    0.641347   -0.061425
C      0.582127   -0.488513    0.677971
C     -1.431057   -0.680444   -0.581504
C     -0.497451   -1.475961    0.288333
N      1.298993   -0.061965   -0.451427
O     -4.357364    3.215848   -0.666537
O      0.138493   -2.400920   -0.576042
H     -4.318779   -2.156576    0.345915
H     -3.577226   -0.615899    0.850616
H     -2.914749   -2.042684    2.543700
H     -2.801363   -3.449266    1.474010
H     -2.338387   -2.541473   -1.130261
H     -3.348640   -1.137185   -1.560908
H      4.819409   -0.244862    1.229738
H      6.245232   -0.230656    0.059045
H      3.666531   -1.512164   -0.570879
H      4.924367   -0.835277   -1.781348
H      4.531250    2.009540    0.470016
H      5.538896    1.719834   -1.055041
H     -0.866256    3.010465    2.168610
H     -2.826618    4.182070    1.224513
H     -0.567921   -3.173717    1.535216
H     -0.709421   -1.649825    2.398925
H     -1.312358    0.227811   -2.494432
H     -0.687766   -1.431720   -2.415870
H      1.362297   -0.439820   -2.473046
H      0.701132    1.136738   -2.010006
H     -0.221281    0.313197    2.547762
H      0.927248    1.345346    1.648641
H     -3.507726    0.882901   -1.374410
H      2.053688    1.926537   -0.237481
H      2.685300    0.679928    0.880296
H      3.470007    0.985410   -2.084659
H      1.296547   -1.093398    1.318735
H     -5.282955    3.094962   -0.263438
H     -0.399801   -3.201765   -0.707038
