40

C     -3.663141   -0.204918    1.261719
C     -4.353259    0.786728   -0.839010
C     -3.483201   -1.461937   -0.795707
C      1.994877   -1.101803    1.473665
C      3.369698   -1.271669    1.398766
C      2.228271    0.738716    0.069091
C     -0.802198   -0.116351   -0.306110
C      4.472907    1.546138   -0.709618
C      1.388967   -0.084200    0.810433
C      3.577760    0.592934   -0.022171
C      4.172443   -0.456238    0.676056
C     -0.067424    0.150349    0.965992
C     -3.282642   -0.075098   -0.139297
N     -2.051588    0.447866   -0.565555
O      4.568913    1.366751   -2.070172
O      5.571167   -0.635864    0.620791
O     -0.622071   -0.194142    2.133795
Cl     0.691122    0.000000    0.000000
H     -3.738038   -1.309744    1.591119
H     -3.149794    0.327616    2.048370
H     -4.788439    0.111317    1.384968
H     -5.376059    0.419984   -0.606626
H     -4.156171    1.834354   -0.545309
H     -4.129169    0.736577   -1.938379
H     -4.549124   -1.554439   -0.997877
H     -3.192284   -2.280964   -0.112837
H     -2.933238   -1.468313   -1.766357
H      1.414235   -1.823762    2.058229
H      3.818804   -2.134177    1.947784
H      1.764075    1.578715   -0.468000
H     -0.109206    0.016178   -1.161282
H     -0.930683   -1.288706   -0.309654
H      5.266255    2.023002   -0.175795
H      3.702545    2.539686   -0.798726
H     -0.068122    1.344727    1.008972
H     -2.111425    1.469407   -0.749898
H      4.463843    0.406527   -2.210887
H      6.114007    0.007368    0.058762
H     -0.331488   -0.982616    2.607780
H     -0.691122    0.000000    0.000000
