53

C      6.290184    1.792558    1.375123
C     -3.432557   -0.268468   -3.454965
C     -4.467317   -1.825949   -1.863878
C     -3.489225    0.852488    3.216322
C      6.560804    0.319392    1.224082
C      5.701817   -0.233096    0.135455
C      4.215685   -0.061504    0.417616
C      3.476669   -0.677830   -0.751865
C     -4.096155    1.541182    0.838629
C     -4.415544    0.778232   -0.402525
C     -2.506744   -0.221736    1.228836
C      1.317319   -1.580046    0.034424
C      1.308835    0.407300   -1.198559
C     -3.683955   -0.607427   -2.207977
C     -3.307783    0.661710    1.738563
C      2.013751   -0.609378   -0.636805
C     -3.150142    0.283940   -1.106220
C     -2.264766   -0.478680   -0.244251
C     -0.039403   -1.500408    0.118184
C     -0.082776    0.493849   -1.115919
C     -0.800710   -0.459693   -0.453164
O     -0.740224   -2.503517    0.809789
O     -0.685154    1.576957   -1.727895
H      7.161946    2.251550    1.920581
H      6.129978    2.259857    0.385393
H      5.348677    1.917735    1.965779
H      7.631460    0.183789    0.889160
H      6.424048   -0.209959    2.189402
H      5.990404    0.297841   -0.802462
H      5.913428   -1.307877   -0.054376
H      3.966069   -0.530012    1.372279
H      4.036688    1.029986    0.454980
H     -2.869427    0.608576   -3.668468
H     -3.802814   -0.887937   -4.274081
H     -4.528998   -1.910782   -0.777163
H     -5.456570   -1.754844   -2.362359
H     -3.938566   -2.727733   -2.246309
H     -3.176918    1.859502    3.527688
H     -4.557975    0.733366    3.439504
H     -2.922823    0.130797    3.817122
H      3.774014   -1.730270   -0.892472
H      3.799979   -0.094220   -1.671125
H     -3.576652    2.494043    0.655973
H     -5.080890    1.812719    1.304346
H     -4.920958    1.460313   -1.115506
H     -5.074760   -0.051067   -0.166363
H     -1.944244   -0.852106    1.906371
H      1.822860   -2.429921    0.512970
H      1.825400    1.190804   -1.734102
H     -2.714077    1.155884   -1.588348
H     -2.557179   -1.582801   -0.330168
H     -0.257398   -3.278529    1.237667
H     -0.167310    2.281420   -2.214683
