26

C     -1.765257   -0.880861   -1.545051
C      3.328680   -0.797206   -0.472664
C     -1.787383    1.101106    1.484368
C      2.038604   -1.112257   -0.097724
C     -0.701983    0.071686    1.681589
C      3.632171    0.507405   -0.850269
C     -2.384776    0.672506    0.158064
C      1.374237    1.116845   -0.467053
C      1.026995   -0.174657   -0.082332
C     -0.362081   -0.466072    0.310207
N      2.635207    1.409773   -0.830002
N     -1.296050    0.129746   -0.617573
H      4.108243   -1.527119   -0.482771
H      1.765410   -2.133208    0.206097
H      4.635149    0.785959   -1.149695
H      0.582863    1.866419   -0.458778
H     -1.307117   -0.752223   -2.547938
H     -2.869978   -0.933648   -1.580146
H     -1.422659   -1.894944   -1.195581
H     -1.319724    2.108201    1.420152
H     -2.529508    1.083976    2.291399
H      0.211953    0.549234    2.128466
H     -1.041503   -0.745085    2.375324
H     -2.805110    1.599239   -0.309695
H     -3.214248   -0.022111    0.295465
H     -0.532135   -1.562702    0.336141
