44

C     -0.185081   -0.825426   -2.453274
C      3.415275    1.103257    0.490033
C     -3.314957    1.097609    1.169429
C      3.002746    1.332902   -0.805753
C     -3.051607    1.644531   -0.065038
C      2.662736    0.294178    1.309049
C     -2.556416    0.034299    1.625295
C      1.847428    0.768627   -1.305204
C     -2.037639    1.151952   -0.867132
C      0.681175   -1.148024    1.678654
C      1.488162   -0.282716    0.809545
C     -1.547667   -0.451993    0.821050
C      1.110509   -0.030872   -0.484444
C     -1.278810    0.092702   -0.417266
C     -0.570968   -1.582753    1.013772
C     -0.145919   -0.666888   -0.966396
N     -0.319488   -1.973571   -0.348107
C     -0.284471   -0.574599   -0.396121
C      0.261574    0.499139    0.150390
C     -1.709804   -0.750316   -0.359467
C      1.713576    0.716269    0.134282
O     -2.223146   -1.777536   -0.883159
O     -2.581504    0.150370    0.224476
O      2.187593    1.752300    0.666604
O      2.584130   -0.190145   -0.452753
H      0.784234   -1.284203   -2.762670
H     -1.005441   -1.495148   -2.726966
H     -0.293046    0.141880   -2.955340
H      4.311662    1.535756    0.891330
H     -4.118660    1.506074    1.778225
H      3.631467    1.983405   -1.424111
H     -3.632860    2.480557   -0.447082
H      2.911829    0.062429    2.332726
H     -2.784985   -0.372686    2.593796
H      1.544091    0.961164   -2.319389
H     -1.800441    1.549799   -1.834933
H      1.312236   -2.053506    1.887576
H      0.501488   -0.630850    2.649779
H     -1.075831   -2.378869    1.603344
H      0.514778   -2.563617   -0.470500
H      0.358959   -1.296926   -0.859170
H     -0.386626    1.214985    0.610272
H     -3.511665    0.285207   -0.091713
H      3.591386   -0.028746   -0.322109
