26

C     -0.888754    2.097823   -0.036403
C      3.124075   -0.224314   -0.552344
C     -2.492636   -1.117937   -0.198577
C      1.749130   -0.211933   -0.624983
C     -1.023383   -1.527208   -0.030169
C      3.726949   -0.244554    0.684519
C     -2.483013    0.403644   -0.181582
C      1.640929   -0.240015    1.732332
C      0.982819   -0.219625    0.521251
C     -0.465373   -0.207627    0.523601
N      2.985498   -0.252143    1.805441
N     -1.079981    0.727217   -0.384533
H      3.748483   -0.218421   -1.454735
H      1.286046   -0.195982   -1.608207
H      4.802131   -0.255134    0.814995
H      1.111893   -0.247268    2.681810
H     -1.147319    2.705967   -0.954481
H      0.166739    2.359026    0.183600
H     -1.582528    2.458624    0.750935
H     -2.925513   -1.535523   -1.109901
H     -3.005552   -1.508834    0.724683
H     -0.574125   -1.760138   -1.008222
H     -0.894287   -2.299815    0.730802
H     -3.139392    0.832290   -0.951922
H     -2.734205    0.742698    0.846545
H     -0.888631   -0.060817    1.514978
