43

C      2.182972    0.860703   -0.554428
C     -2.787165    0.845240    0.135659
C     -1.932810    1.098871    1.390719
C      3.524374    0.548108   -0.640983
C     -1.066672   -0.420252   -1.157599
C      1.677697   -1.342155    0.078406
C      1.215810   -0.074476   -0.191836
C     -2.373443   -0.507712   -0.360790
C     -0.198644    0.299637   -0.112209
C     -0.884460   -0.005627    1.171969
C      3.933347   -0.738980   -0.359111
Cl     5.640870   -1.149385   -0.466096
N      3.006724   -1.644354   -0.009293
N     -1.825068   -1.103153    0.872156
C     -0.279858   -0.382218   -0.302700
C      0.484191    0.097783    0.920232
C     -1.560407   -0.955894    0.168607
C      1.801452    0.652566    0.567036
O     -0.459983    0.694503   -1.140570
O     -0.300843    1.091377    1.521023
O     -1.511968   -1.944728    0.939805
O     -2.781753   -0.446046   -0.207181
O      2.067578    1.872217    0.822159
O      2.764615   -0.129787   -0.041402
H      1.824321    1.870018   -0.770751
H     -3.850838    0.947121    0.332493
H     -2.401714    1.594006   -0.613442
H     -2.482057    0.828848    2.290963
H     -1.488037    2.093234    1.387777
H      4.262952    1.308011   -0.929719
H     -1.176753    0.163019   -2.071862
H     -0.708084   -1.451964   -1.317054
H      1.000260   -2.121895    0.364563
H     -3.131956   -1.102710   -0.827801
H     -0.331030    1.391569   -0.381381
H     -0.270221   -0.188824    2.030378
H     -1.360375   -1.996896    0.709273
H      0.264752   -1.209907   -0.818102
H      0.556983   -0.773032    1.608047
H     -0.795061    0.481826   -2.028586
H     -0.384229    1.855541    0.911142
H     -3.583409   -1.075419   -0.353776
H      3.717938    0.171218   -0.173391
