23

C      2.538722    0.649176    0.561200
C     -2.183429    1.263076    0.599397
C      1.185457   -0.069634    0.567034
C     -1.793831   -0.151172    0.418439
C      0.412643    0.463337   -0.601667
C     -0.906945   -0.244250   -0.807433
O     -1.442327    2.160712    0.885680
O      1.409185   -1.430991    0.365565
O     -2.926715   -0.941087    0.105998
O      1.205200    0.239219   -1.753993
O     -0.603541   -1.594870   -0.981406
H      2.521880    1.538565   -0.101312
H      3.334305   -0.021731    0.178074
H      2.812875    0.941059    1.613220
H     -3.233745    1.527914    0.463760
H      0.664470    0.071754    1.512424
H     -1.252204   -0.578911    1.264337
H      0.304158    1.562467   -0.514969
H     -1.425061    0.209115   -1.655763
H      2.262290   -1.699724    0.784778
H     -3.353627   -1.280449    0.943914
H      1.136853   -0.734786   -1.927907
H     -0.666611   -1.878789   -1.919372
