23

C      2.750740    0.363196    0.754657
C     -2.932075    0.455668   -0.830149
C      1.301512    0.773763    0.475332
C     -1.433714    0.264439   -0.874761
C      0.440514   -0.422732    0.658540
C     -1.025430   -0.162652    0.500137
O     -3.444691    1.254689   -0.058408
O      1.278037    1.264773   -0.822706
O     -1.194984   -0.697877   -1.842265
O      0.865929   -1.444954   -0.186314
O     -1.774635   -1.311907    0.806167
H      3.314347    1.268829    1.061323
H      3.233279   -0.061177   -0.146545
H      2.783948   -0.330564    1.625951
H     -3.611872   -0.096185   -1.468447
H      1.084792    1.587988    1.191767
H     -1.033002    1.265506   -1.135692
H      0.576095   -0.829338    1.699774
H     -1.362421    0.620839    1.209471
H      1.229323    0.556354   -1.502651
H     -1.173786   -0.249887   -2.733322
H      1.414375   -2.121918    0.260801
H     -1.286282   -1.946852    1.357341
