51

C      5.101190   -0.955849    1.487011
C      4.900302    0.378111    1.234343
C      3.919816   -1.609967    1.318205
C     -2.952818    2.979742   -0.630756
C      0.265558    2.503133    0.071806
C     -2.202808    1.921139    0.146640
C     -0.844859    1.654609   -0.354803
C      3.550496    0.513067    0.904685
C     -0.554998    0.385452    0.483092
C     -2.821896    0.547660   -0.054339
C      2.723635    1.649467    0.536787
C      1.610370   -0.884879    0.679638
C     -2.055168   -1.428980    1.211262
C      1.403390   -1.448463   -1.543978
C     -1.637669   -2.679663   -0.652092
C     -1.664907   -0.459579    0.116056
C      0.833895    0.170628    0.030974
Cl    -4.139650    0.298696    1.055102
N     -3.126437    2.644235   -2.013662
N      1.652598   -2.076972   -2.639537
N     -1.720093   -3.698527   -1.432561
N      1.545762   -2.027179   -0.260546
N     -1.622755   -2.738984    0.769940
N     -1.544967   -1.306509   -1.022338
N      0.954812   -0.108716   -1.383488
N      2.980927   -0.682111    0.959742
N      1.343189    1.540664    0.235143
O      3.245384    2.790327    0.479439
O     -1.495589   -1.129960    2.443478
H      6.021109   -1.415591    1.768589
H      5.581615    1.195203    1.263560
H      3.742345   -2.673779    1.442444
H     -3.965616    3.056007   -0.155633
H     -2.443978    3.937033   -0.462191
H      0.572695    3.235051   -0.711658
H      0.053391    3.075117    0.979805
H     -2.239321    2.228984    1.213055
H     -0.887019    1.403658   -1.424434
H     -0.542749    0.681651    1.544701
H     -3.111014    0.495562   -1.124352
H      1.093915   -1.264256    1.587291
H     -3.146244   -1.509834    1.364106
H     -2.305146    2.958456   -2.583171
H     -3.986783    3.168045   -2.351433
H      1.546609   -1.647683   -3.581551
H     -1.782566   -4.652713   -1.067811
H      1.595694   -3.026488   -0.015799
H     -1.368360   -3.518701    1.404515
H     -1.409465   -0.996574   -2.006279
H      0.766727    0.506563   -2.212487
H     -1.432548   -1.976303    2.953488
