51

C     -5.131975   -0.289591   -2.001617
C     -4.700706   -1.475496   -1.471429
C     -4.173857    0.645653   -1.777450
C      3.053923   -2.393242    0.905788
C     -0.176503   -2.149341    0.843241
C      2.166837   -1.479578    0.128213
C      0.876183   -1.155073    0.799828
C     -3.469203   -1.199151   -0.935879
C      0.399714   -0.161300   -0.291398
C      2.685623   -0.054331    0.073539
C     -2.510164   -2.015926   -0.238759
C     -1.927000    0.704944   -0.684557
C      1.799194    1.653563   -1.375152
C     -2.120481    1.466109    1.459990
C      2.358871    2.778471    0.525633
C      1.425578    0.821639   -0.159677
C     -1.003063   -0.074339    0.134616
Cl     3.937665    0.188289   -1.102836
N      4.269080   -2.660138    0.204151
N     -2.747392    1.984331    2.471884
N      2.771807    3.763930    1.249234
N     -2.293044    1.866013    0.130204
N      2.888727    2.455796   -0.780172
N      1.338007    1.834957    0.839093
N     -1.167428    0.430067    1.478712
N     -3.138940    0.093178   -1.117868
N     -1.296571   -1.496871    0.227509
O     -2.799441   -3.248008   -0.053009
O      0.863890    2.559968   -1.770277
H     -6.075174   -0.156839   -2.503623
H     -5.210442   -2.443215   -1.465148
H     -4.275797    1.687492   -2.106198
H      2.508251   -3.351444    1.033399
H      3.198217   -1.969568    1.916522
H     -0.474874   -2.336662    1.918016
H      0.050520   -3.147642    0.433112
H      2.030826   -1.812258   -0.920884
H      1.076606   -0.655651    1.744110
H      0.464083   -0.694308   -1.251678
H      3.012498    0.180232    1.127642
H     -1.433461    1.122476   -1.579641
H      2.201692    1.017399   -2.177974
H      5.034853   -2.783446    0.916471
H      4.250960   -3.556030   -0.347333
H     -2.548869    1.617709    3.417550
H      2.315798    3.900605    2.174527
H     -2.616159    2.796839   -0.201602
H      3.793125    2.725624   -1.174885
H      0.703456    1.942426    1.654416
H     -0.696825    0.128984    2.366598
H      0.511385    2.392755   -2.684954
