35

C     -0.696777    0.810671   -2.178342
C      1.620161    0.096661   -0.616746
C     -1.445207    0.398422    1.420904
C     -1.926903    0.695416    0.014741
C     -0.257387   -1.536308   -0.289455
C      0.067029    0.352127    1.354905
C      0.546251    1.784949    1.180132
C      0.049324    2.106779   -0.180078
C     -0.643413    0.901107   -0.723061
C      0.246070   -0.168488   -0.060640
Br    -0.178381    2.946869    2.523051
O      0.178351    3.154238   -0.752074
O      2.293797   -2.831827   -0.194371
O      0.736866   -2.698653    1.906572
O      0.105387   -4.136704    0.065179
S      0.737859   -2.812194    0.403239
N      0.006644   -0.015152    0.273642
H     -1.709397    1.051089   -2.555620
H     -0.369709   -0.131584   -2.640254
H     -0.028264    1.606721   -2.619304
H      1.670108   -0.370004   -1.606592
H      1.758800    1.187687   -0.764282
H      2.428049   -0.226407    0.068455
H     -1.888981   -0.515922    1.844017
H     -1.704534    1.273925    2.051083
H     -2.577292    1.602191   -0.000463
H     -2.477260   -0.169172   -0.377841
H     -1.256257   -1.626300    0.224519
H     -0.460955   -1.718361   -1.361790
H      0.553508   -0.209071    2.120485
H      1.660371    1.784971    1.239126
H      2.968785   -2.602826    0.504504
H     -0.053037    0.973438   -0.087338
H      0.889910   -0.452430   -0.095288
H     -0.843517   -0.505855   -0.091016
