39

C      2.667070    0.947681    1.437424
C      3.608812   -0.711876   -0.040018
C     -1.897665    2.956958   -0.839714
C     -0.914272   -2.934747    1.484489
C     -2.795544   -0.897489    0.006017
C     -2.604519    0.546468   -0.405009
C     -1.769285   -1.829032   -0.648021
C     -0.446886    1.637696    0.521231
C      0.469109   -1.441561    0.130533
C      0.734529    1.835595   -0.362170
C      0.694379   -0.573578   -1.008683
C      2.611750    0.321331    0.290125
C     -1.778273    1.520298   -0.237014
C     -0.682132   -2.029312    0.295290
C      1.552522    0.639506   -0.680240
H      1.968555    1.719407    1.749755
H      3.466810    0.684100    2.136850
H      3.327799   -1.257675   -0.979437
H      4.625591   -0.259661   -0.155259
H      3.713415   -1.488148    0.742914
H     -1.454037    2.994344   -1.847699
H     -1.155784    3.618131   -0.249130
H     -2.788831    3.502197   -0.726175
H     -1.503079   -3.784800    1.086383
H      0.066351   -3.375016    1.817209
H     -1.417426   -2.410019    2.296604
H     -2.823324   -1.125965    1.062208
H     -3.804190   -1.296290   -0.339460
H     -3.575770    0.601534   -1.076535
H     -1.553199   -1.576734   -1.673015
H     -2.279845   -2.849035   -0.725833
H     -0.223702    0.913811    1.280714
H     -0.467526    2.613624    1.136332
H      1.315922   -1.566671    0.829160
H      0.359918    2.255127   -1.335098
H      1.454207    2.630095   -0.002727
H     -0.130311   -0.219881   -1.594056
H      1.326151   -1.183380   -1.732812
H      2.102712    0.872970   -1.645130
