45

C      4.160277   -2.058760    0.204768
C      5.494610   -1.740046    0.030383
C      3.191286   -1.080666    0.259107
C     -0.924219    1.321842   -0.555389
C     -1.845020    0.392267   -0.462790
C      4.850411    0.558043   -0.031032
C     -3.067525   -0.893496    1.658186
C     -4.665195   -0.967567   -0.760516
C      1.308221    1.520195    0.307647
C      5.812604   -0.409405   -0.084215
C      0.496933    0.918244   -0.803667
C      3.485298    0.262839    0.143831
C     -3.237092    0.810621   -0.217813
C     -3.799081    0.247794    1.035143
C     -4.083369    0.307812   -1.387553
C     -5.104591   -0.409021    0.591792
C     -4.191720   -1.711581    2.232131
C      7.253334   -0.006332   -0.260018
F      7.505626    0.129154   -1.594902
F      8.067926   -0.960377    0.263945
F      7.415811    1.242502    0.304064
O      0.890050    1.433308   -2.039123
O     -5.121111    1.192976   -1.675294
O     -4.068760   -2.520447    3.172349
O      2.625965    1.293594    0.182038
O     -5.350414   -1.407425    1.541782
H      3.919317   -3.112350    0.299679
H      6.240173   -2.506269   -0.004498
H      2.160224   -1.344655    0.413798
H     -1.174536    2.351199   -0.456177
H     -1.587347   -0.646119   -0.572574
H      5.112010    1.606849   -0.120533
H     -2.431880   -0.561988    2.525546
H     -2.436454   -1.488056    1.005995
H     -5.478248   -1.375595   -1.338519
H     -3.806607   -1.647424   -0.619360
H      1.119961    2.625400    0.334478
H      0.921125    1.137023    1.310958
H      0.618767   -0.172361   -0.802546
H     -3.317480    1.918415   -0.170792
H     -3.991398    1.059491    1.776052
H     -3.476525    0.079739   -2.248779
H     -5.916670    0.312612    0.461248
H      1.231294    2.341226   -1.865003
H     -4.805980    1.956797   -2.185357
