27

C     -2.199134    1.157189   -0.029803
C      3.356928    0.665289    0.047539
C      2.312594    1.591747   -0.009424
C      3.012329   -0.671289    0.010367
C      0.990028    1.184409   -0.099238
C     -0.225369   -2.077286   -0.215166
C     -1.868135   -0.232828   -0.301570
C     -0.509967   -0.702102   -0.217563
C      1.687466   -1.024074   -0.078977
N     -2.686608   -1.053266    0.614411
N      1.094009   -2.210758   -0.131244
N      0.686817   -0.107878   -0.133188
Cl     0.691965    0.000000    0.000000
Cl     0.688875    0.000000    0.000000
H     -3.330672    1.201129    0.101583
H     -2.038176    1.886995   -0.858103
H     -1.841390    1.524828    0.961930
H      4.383297    0.935473    0.116731
H      2.597886    2.633236    0.020600
H      3.777011   -1.460440    0.050813
H      0.232774    1.918359   -0.140828
H     -0.922582   -2.908884   -0.270044
H     -2.269256   -0.501816   -1.324407
H     -3.660799   -1.047203    0.284079
H     -2.579051   -0.700830    1.601502
H     -0.691965    0.000000    0.000000
H     -0.688875    0.000000    0.000000
