27

C     -2.673158    0.718116   -0.519642
C      3.377202    0.519832   -0.159334
C      2.566532    1.395635    0.517922
C      2.858163   -0.613774   -0.747909
C      1.223660    1.128344    0.603298
C     -0.502588   -1.625458   -0.741024
C     -1.790375    0.176118    0.582365
C     -0.559441   -0.450498   -0.021733
C      1.506061   -0.821681   -0.625011
N     -2.515582   -0.900828    1.228432
N      0.774985   -1.849988   -1.111118
N      0.699980    0.026724    0.034873
Cl     0.689399    0.000000    0.000000
Cl     0.686160    0.000000    0.000000
H     -2.039363    1.225768   -1.289690
H     -3.309818   -0.076977   -0.948863
H     -3.337150    1.496910   -0.056106
H      4.447774    0.665443   -0.268115
H      2.990557    2.293334    0.981629
H      3.501341   -1.309370   -1.285681
H      0.530267    1.779983    1.123770
H     -1.380230   -2.250507   -0.956930
H     -1.500952    0.962656    1.308129
H     -2.044701   -1.823695    1.140637
H     -2.823163   -0.666086    2.180847
H     -0.689399    0.000000    0.000000
H     -0.686160    0.000000    0.000000
