33

C      4.696846    1.505565   -0.264639
C      4.372969    1.429612    1.075155
C      3.801079    0.990725   -1.195205
C     -2.474891    0.417859   -0.722115
C      3.180606    0.851859    1.472518
C      2.607700    0.414562   -0.765861
C     -2.177274   -0.410536    0.506845
C     -3.654744    1.325328   -0.360932
C     -1.405972   -2.306630   -0.826721
C      2.275362    0.334000    0.568953
C     -1.037416   -1.359939    0.320793
C      1.013872   -0.277623    0.982573
N      0.223203   -0.735974    0.101634
O     -4.005183    2.126833   -1.425010
O     -0.412907   -3.308694   -0.924440
O      0.641524   -0.378842    2.310242
H      5.615282    1.946916   -0.626582
H      5.070515    1.830675    1.802136
H      4.030013    1.036405   -2.264119
H     -2.791535   -0.221738   -1.567192
H     -1.594053    1.040121   -0.950153
H      2.911984    0.784790    2.521856
H      1.920603    0.019000   -1.489524
H     -3.092428   -1.025318    0.695959
H     -2.053128    0.221798    1.405570
H     -4.479796    0.644418   -0.041187
H     -3.329779    1.913670    0.526975
H     -1.490215   -1.775030   -1.787259
H     -2.356592   -2.802057   -0.558154
H     -1.031039   -2.024606    1.233043
H     -4.281915    3.007718   -1.047979
H     -0.766654   -4.107182   -1.388794
H      0.073962   -1.107687    2.681615
