48

C     -6.603455    1.300721   -0.844063
C      6.982898   -0.372177    0.381030
C     -4.186398   -1.088437    2.386498
C     -2.576501    0.308410   -2.107994
C     -3.882713    0.635801   -1.745403
C      2.208058    1.227389    1.554492
C      0.830281    0.773048    1.935452
C     -0.259256   -0.427271   -1.418517
C      4.213819    0.159641    0.447835
C      2.583238   -0.819106   -1.527864
C     -1.067293   -0.502980    1.190023
C     -1.671386   -0.060022   -1.143329
C      2.836428    0.420877    0.476213
C      2.030455   -0.075932   -0.520492
C     -2.067310   -0.102507    0.183655
C      0.594971    0.252178   -0.396844
C      3.942046   -1.100978   -1.593671
C     -4.278207    0.593914   -0.424519
C      4.731916   -0.593550   -0.584586
C     -3.363475    0.221323    0.552441
N      0.250872   -0.069227    0.955891
O      4.467457   -1.868402   -2.646423
O     -5.556686    0.907318   -0.009221
O      6.080515   -0.835110   -0.590135
O     -3.689987    0.156937    1.898937
H     -6.564789    0.756930   -1.816689
H     -7.555430    0.973993   -0.360739
H     -6.663463    2.401949   -0.973044
H      6.509336   -0.544083    1.378570
H      7.224491    0.679551    0.190187
H      7.927103   -0.939304    0.397070
H     -4.296341   -1.838935    1.595752
H     -3.489797   -1.521655    3.149550
H     -5.158206   -0.968239    2.912657
H     -2.246940    0.335474   -3.141290
H     -4.585221    0.924206   -2.515137
H      2.905578    1.197450    2.439076
H      2.199181    2.322045    1.275969
H      0.212717    1.678991    2.168442
H      0.924211    0.251735    2.932093
H     -0.195240   -1.532299   -1.372136
H      0.071074   -0.063513   -2.421343
H      4.807563    0.570556    1.252112
H      1.948433   -1.214251   -2.319068
H     -1.426470   -0.192370    2.205732
H     -1.072802   -1.630968    1.215136
H      0.511225    1.353779   -0.586742
H      5.463502   -2.042899   -2.644552
