39

C      1.421854    0.335862   -1.422226
C      2.724305    0.386712   -1.875146
C      2.181104   -0.737366    0.532844
C     -5.069834    0.801450    1.032409
C     -3.038320    2.042663    0.688941
C     -2.326954   -1.612064    0.197722
C      1.119143   -0.230286   -0.201594
C     -4.387293    1.992654    0.987149
C     -3.002435   -0.323562    0.466477
C      3.780835   -0.118430   -1.143151
C     -4.362461   -0.375250    0.767046
C     -1.018110   -1.334280   -0.507559
C     -2.333313    0.901147    0.427297
C      3.482029   -0.685485    0.078263
C     -0.278439   -0.293782    0.302406
O     -5.034637    3.193655    1.241232
O      5.071032   -0.038744   -1.650784
O     -5.060925   -1.566339    0.815997
O     -1.316469   -0.875733   -1.787771
O      5.364514    1.335335    1.681289
O      6.865856   -0.770392    1.866370
O      4.935796   -0.691935    3.313511
O     -0.961778    0.928594    0.122058
O      4.541491   -1.193327    0.814905
S      5.431961   -0.302054    1.934335
H      0.577992    0.728792   -1.985712
H      2.915514    0.842449   -2.843604
H      1.960298   -1.188089    1.499180
H     -6.114300    0.805154    1.267143
H     -2.540536    3.002000    0.664152
H     -2.087488   -2.159626    1.136464
H     -2.930916   -2.272867   -0.485862
H     -0.434875   -2.279085   -0.600891
H     -0.236938   -0.624000    1.347028
H     -5.441718    3.653671    0.414894
H      5.849464   -0.406414   -1.120542
H     -4.620310   -2.455505    0.637062
H     -1.841602   -0.053911   -1.790989
H      6.216462    1.638386    1.303833
