34

C     -5.130278    0.739734    0.426448
C     -4.688689   -0.689226    0.767660
C     -3.199256   -0.664039    1.075478
C     -2.495722   -0.146603   -0.161474
C     -0.995554   -0.074145    0.043039
C     -0.393062    0.436306   -1.264527
C      5.253270    0.264461    0.496257
C      3.325280   -0.491498   -0.908160
C      3.746555    0.178524    0.352311
C      1.081311    0.554418   -1.110329
O      5.834107    0.915819   -0.589129
O      3.230832   -0.484206    1.462613
O      1.590238    1.721617   -1.020396
O      1.925944   -0.517166   -1.054420
H     -4.594344    1.460840    1.082219
H     -4.844003    0.961818   -0.617885
H     -6.232508    0.808962    0.489045
H     -4.832302   -1.330608   -0.142142
H     -5.306512   -1.052168    1.595020
H     -2.809621   -1.662564    1.314688
H     -3.009266    0.046903    1.919594
H     -2.739105   -0.759860   -1.042171
H     -2.822159    0.921874   -0.359546
H     -0.773032    0.604353    0.881740
H     -0.587446   -1.078575    0.294785
H     -0.679743   -0.271149   -2.062240
H     -0.817926    1.452618   -1.476225
H      5.684692   -0.733195    0.623003
H      5.455299    0.911392    1.376296
H      3.765821    0.038223   -1.771252
H      3.639995   -1.575404   -0.933900
H      3.300122    1.202575    0.389179
H      6.064451    0.296923   -1.332776
H      3.052611   -1.439386    1.257194
