41

C     -4.908908   -0.045207   -0.380254
C      6.175782    0.295575   -0.698402
C      5.853355    0.099719    0.626576
C      5.213698    0.086365   -1.670852
C      4.591017   -0.301137    1.009574
C      3.947491   -0.314022   -1.309009
C     -1.754752    1.683838    0.682075
C     -2.807300    0.486456   -1.497135
C      0.040622   -1.550224   -0.138206
C      3.656387   -0.501260    0.023925
C     -0.765494    0.760092   -0.013137
C     -0.641013   -0.553566    0.730064
C     -1.306321    0.487334   -1.364867
C      2.310306   -0.927640    0.417319
C     -2.012662   -1.055510    1.135117
C     -3.431840    0.022898   -0.180336
C     -2.996844    0.856786    0.978120
O     -0.644100    0.271261   -2.342650
O      2.078957   -1.088273    1.632415
O     -3.994767    1.611298    1.550374
O      1.325116   -1.146588   -0.518166
O     -2.861023   -1.242395    0.072402
O     -2.594648   -0.089188    1.949201
H     -5.366736   -0.751044    0.342160
H     -5.099316   -0.337520   -1.435400
H     -5.313949    0.983206   -0.272918
H      7.180684    0.611008   -0.955268
H      6.576572    0.254158    1.394655
H      5.428646    0.228740   -2.709142
H      4.355687   -0.451327    2.071868
H      3.208846   -0.471455   -2.097509
H     -1.972112    2.543041    0.043990
H     -1.290982    1.969250    1.650233
H     -3.040397   -0.314838   -2.231479
H     -3.193321    1.449450   -1.827469
H     -0.554779   -1.708181   -1.065370
H      0.093065   -2.511092    0.439159
H      0.223075    1.237154   -0.094194
H     -0.094142   -0.365957    1.658147
H     -1.870651   -1.964899    1.751862
H     -3.743252    1.753695    2.513506
