45

C      3.171923    1.856175   -0.009669
C      3.274076   -0.281403   -1.229001
C     -1.265019   -1.050058   -1.645123
C     -1.607303    2.340865   -0.420717
C     -3.338811   -0.953009    0.340619
C      1.356762   -1.388355    0.852387
C     -2.121727   -1.769515    0.514345
C     -3.162623    0.459058   -0.039103
C      0.314790   -1.952398   -0.036168
C      0.559701    0.783035   -0.056887
C      1.667992    0.051673    0.674701
C     -0.724392    0.181554    0.489245
C      3.023637    0.339412    0.103964
C     -0.922889   -1.138316   -0.201731
C     -1.885920    1.096823    0.435536
O      4.035651   -0.077682    0.968083
O     -2.171604    1.637988    1.715450
H      2.511540    2.279385   -0.773270
H      2.980654    2.308417    1.005655
H      4.219566    2.118798   -0.265175
H      2.402842   -0.285681   -1.895749
H      4.061733    0.338938   -1.744257
H      3.747149   -1.295237   -1.134697
H     -1.165649   -0.066865   -2.102623
H     -0.612971   -1.741107   -2.260394
H     -2.306334   -1.427812   -1.873925
H     -1.165233    3.158570    0.210210
H     -0.897451    2.147887   -1.219894
H     -2.586854    2.750435   -0.767131
H     -3.938825   -1.019984    1.295168
H     -3.999693   -1.460266   -0.422453
H      2.302187   -1.965243    0.674723
H      1.076501   -1.651920    1.915209
H     -2.281800   -2.814778    0.132115
H     -1.831959   -1.875567    1.577701
H     -3.244533    0.657867   -1.148129
H     -4.032869    1.041799    0.387523
H      0.778930   -2.223974   -1.014449
H     -0.002685   -2.943512    0.403549
H      0.608573    1.877228    0.128781
H      0.632100    0.538457   -1.140990
H      1.668945    0.513842    1.709543
H     -0.571086   -0.091309    1.577788
H      3.721540    0.087395    1.905540
H     -2.278560    0.908390    2.383699
