16

C      0.566944    0.999009    0.189243
C      1.805975    1.234510   -0.273303
C      0.389241   -0.464669    0.277460
C      2.477485   -0.037938   -0.502002
C     -0.767154   -0.993788   -0.514164
C     -2.045948   -0.396567   -0.052347
Cl    -0.854625   -2.761890   -0.463957
O      3.664112   -0.176675   -0.939521
O     -2.944610   -1.176158    0.420579
O     -2.297316    0.959429   -0.114817
O      1.595935   -1.050481   -0.159314
H     -0.182411    1.717565    0.457523
H      2.211070    2.231933   -0.438964
H      0.284386   -0.725600    1.354407
H     -0.646346   -0.645522   -1.580680
H     -3.256738    1.286844   -0.113676
