90

C     -6.734710   -0.500337    0.748166
C     -6.752586    3.800680    2.260092
C      3.840831    1.113802   -1.126704
C     -2.911921    0.079348   -1.659982
C     -2.307288    0.715218    2.020859
C     -6.567797   -2.315314   -1.494411
C     -6.655004   -0.079588   -2.003201
C     11.089932   -0.248818   -0.096380
C     10.110349    0.710698   -0.089940
C     10.700142   -1.568604   -0.032719
C      8.773420    0.356551   -0.021414
C      9.349660   -1.909448    0.035783
C     -1.137809   -1.560634   -0.731417
C      4.214420   -1.690956   -0.964899
C     -2.425351   -1.570527    0.060065
C      2.967410   -1.823314   -1.328654
C      0.246207    1.012030    1.060661
C      0.807713   -0.613607   -1.563055
C     -3.024331    2.045655    0.130225
C      3.739155    1.278155    1.285483
C     -5.470107   -0.807479   -0.016259
C     -6.088961    3.068056    1.157258
C      8.363115   -0.953287    0.042673
C     -0.440058   -0.457640   -0.727599
C     -0.817195    0.796912   -0.001663
C      1.617093    1.091995    0.492329
C     -4.489232    1.535570    0.201994
C      4.623261   -0.853396    0.193872
C     -4.364589    0.044587    0.373444
C      2.318679   -0.227755    0.384703
C      6.972603   -1.346266    0.114055
C      3.713355    0.325289    0.149095
C     -3.028408   -0.227955   -0.204775
C     -2.191353    0.828625    0.523337
C      1.858602   -1.159390   -0.628123
N      6.024682   -0.491582    0.123323
N     -5.748480   -1.069694   -1.391666
O     -6.524572    3.286620   -0.023778
O      6.665240   -2.696516    0.174126
O      1.190366   -2.215835    0.057059
O      2.457395    1.843133    1.315078
O     -5.045300    2.178962    1.338828
H     -7.477086   -1.326895    0.629985
H     -7.163689    0.480003    0.574331
H     -6.457946   -0.538640    1.842785
H     -6.738365    4.884006    2.012102
H     -7.832143    3.503769    2.350158
H     -6.206028    3.686567    3.214387
H      3.428189    0.638253   -2.011780
H      4.932853    1.247315   -1.326579
H      3.435852    2.137544   -1.041181
H     -2.127032    0.854292   -1.905947
H     -2.694385   -0.855490   -2.234223
H     -3.824285    0.496122   -2.127311
H     -1.417809    1.121468    2.550143
H     -2.455117   -0.288940    2.410657
H     -3.153551    1.341844    2.435599
H     -6.276713   -2.824003   -2.410438
H     -7.625643   -2.099665   -1.360734
H     -6.233578   -2.928841   -0.635243
H     -7.092987   -0.622501   -2.903365
H     -6.143129    0.777736   -2.430219
H     -7.519898    0.135476   -1.374456
H     12.144638    0.024367   -0.149971
H     10.377437    1.754167   -0.138506
H     11.483243   -2.319207   -0.038914
H      7.969958    1.106094   -0.014677
H      9.142450   -2.981441    0.081872
H     -0.790370   -2.414730   -1.283684
H      4.963153   -2.236967   -1.565368
H     -3.047343   -2.386275   -0.322723
H     -2.146906   -1.791346    1.084057
H      2.689246   -2.447169   -2.190341
H      0.248826    0.220777    1.828783
H      0.026789    2.036863    1.481674
H      1.067611    0.303285   -2.081509
H      0.588851   -1.398748   -2.316136
H     -2.839980    2.829056    0.887199
H     -2.785533    2.455387   -0.842596
H      3.809367    0.676208    2.237659
H      4.540226    2.029324    1.260407
H     -5.195351   -1.864995    0.396601
H     -0.698871    1.669505   -0.709526
H      1.553541    1.617875   -0.476800
H     -5.037400    1.866555   -0.677618
H      4.430047   -1.420324    1.116524
H     -4.247897   -0.081444    1.511879
H      2.347623   -0.663073    1.418181
H      5.791996   -3.047087    0.560088
H      1.338564   -3.080022   -0.400033
