66

C      5.998672    0.475622    2.007577
C      7.434395    1.592086    0.226971
C     -4.715505    2.774365    0.675347
C     -3.734465   -0.927096   -0.556356
C      2.350634   -1.828761   -1.785128
C      5.053410    1.334418   -0.054234
C     -4.672785    0.763249    2.047406
C     -2.582571    1.727915   -0.771251
C     -0.929733   -0.900972   -2.454315
C      6.109526    1.142091    0.692661
C     -4.095539    1.510131    1.121244
C     -2.831467    1.068809    0.541788
C     -4.050233   -0.494263    2.486712
C     -1.260078    1.368289   -1.386581
C      3.713144    0.899307    0.376073
C     -0.931806   -2.169663    0.013043
C      1.302366    0.725567   -0.085489
C     -1.288181   -0.718232    0.029419
C      0.720730   -0.012164   -1.197253
C     -2.973877   -1.129361    1.732455
C      0.575054   -2.297145   -0.176733
C      0.548190    2.000808    0.068596
C     -2.709999   -0.429003    0.397608
C      0.964455   -1.451756   -1.342990
C     -0.820567   -0.012289   -1.212745
O     -4.468233   -1.022817    3.542040
O      3.517636    0.334149    1.456848
O     -1.522275   -2.908292   -0.976989
O     -3.424456   -2.426909    1.403429
O      1.287877   -2.095370    0.964929
O      0.736077    2.689312    1.102523
O      0.092212   -1.805121   -2.401011
O     -0.309963    2.323708   -0.959600
O      2.633554    1.129057   -0.454703
H      5.615208   -0.565159    1.941286
H      7.000478    0.376555    2.504034
H      5.351708    1.021541    2.724706
H      7.462947    2.682243    0.029776
H      7.642688    1.108237   -0.767575
H      8.254748    1.259467    0.889021
H     -4.367473    3.658917    1.233257
H     -5.821480    2.681727    0.885647
H     -4.649787    2.918206   -0.422294
H     -3.662787   -2.002820   -0.780102
H     -3.832395   -0.393931   -1.497361
H     -4.732847   -0.811561   -0.036133
H      2.267099   -2.778436   -2.364628
H      2.949299   -2.073251   -0.889040
H      2.820263   -1.081107   -2.437826
H      5.191814    1.830145   -1.013421
H     -5.611243    1.116770    2.460208
H     -3.413637    1.594829   -1.501977
H     -2.583128    2.842343   -0.575226
H     -1.921259   -1.298925   -2.620542
H     -0.722755   -0.198483   -3.315210
H     -1.974822    1.373345    1.213808
H     -1.382123    1.561353   -2.494748
H     -1.136670   -2.618420    1.009622
H      1.300754    0.239011    0.901299
H     -0.671140   -0.270060    0.869927
H      1.002193    0.491162   -2.157206
H     -2.063794   -1.229351    2.319587
H      0.740255   -3.371797   -0.485502
H     -1.973444   -3.731752   -0.663439
H     -4.224544   -2.678947    1.895655
H      1.429679   -2.881524    1.532775
