39

C     -2.737055    1.186353   -0.571125
C     -1.273301    1.422959   -0.366070
C     -0.688172   -0.506172   -1.745146
C     -1.157552   -1.894114   -1.454787
C      2.842530   -1.033955    0.339480
C     -2.553364   -0.889522    0.849170
C      1.565226    1.379654    0.041012
C      0.747622   -2.305365   -0.072171
C      5.051405    1.807695    1.097180
C      1.491196   -1.019342    0.061510
C     -3.349650    0.286591    0.453996
C      0.875179    0.201791   -0.083282
C      3.541540    0.170554    0.465212
C      2.929642    1.397930    0.321183
C     -1.121056   -0.909436    0.572318
C     -0.576633    0.117624   -0.380082
N     -0.667504   -2.135357   -0.111956
O     -3.664632    1.096048    1.568700
O      4.876680    0.450694    0.735384
O      3.887255    2.386339    0.503357
H     -3.233529    2.199425   -0.487477
H     -3.008149    0.826889   -1.579637
H     -0.907519    2.027993   -1.213665
H     -1.154527    1.989139    0.578585
H      0.298155   -0.599039   -2.270172
H     -1.332581    0.058411   -2.442619
H     -2.254506   -1.900381   -1.484403
H     -0.733230   -2.649252   -2.154678
H      3.386179   -1.983023    0.465367
H     -2.718047   -1.045203    1.960099
H     -3.008084   -1.827101    0.405143
H      1.079918    2.333590   -0.072937
H      0.988750   -2.969826    0.800011
H      1.111658   -2.839315   -0.975469
H      5.975380    2.251375    0.728934
H      4.960427    1.832064    2.220147
H     -4.337711   -0.044007    0.047805
H     -0.514822   -0.911814    1.528138
H     -4.617114    1.182706    1.722948
