47

C      4.139081    0.829118    2.029961
C     -1.993587    0.611888    2.184631
C     -0.797611    0.198500    1.742969
C     -1.160798   -1.677754    0.163590
C     -2.122504   -1.579163   -1.022128
C      2.082135   -0.284173   -2.189735
C     -2.813826    0.953456   -0.115792
C      1.828513    0.171239    0.548165
C     -0.364713   -0.733485   -2.340974
C      0.836292   -0.378788   -1.557337
C     -3.151791    0.595380    1.285728
C      0.717922   -0.152246   -0.204145
C      3.178005    0.035932   -1.443494
C      3.040141    0.258272   -0.093327
C     -1.497886    0.529127   -0.618125
C     -0.645660   -0.266883    0.371002
N     -1.589295   -0.392081   -1.717304
O     -4.108795    1.538977    1.734967
O      4.425506    0.136683   -2.043768
O      4.184974    0.581217    0.624270
C      0.473743    0.229405    0.159269
C     -0.950448   -0.101131    0.013949
F     -1.201129   -1.446203   -0.047781
F     -1.365304    0.449682   -1.199516
F     -1.656150    0.412502    1.060796
O      0.838494    0.872136    1.170065
O      1.459696   -0.119122   -0.747308
H      3.776502    1.862709    2.205923
H      5.185099    0.732399    2.432056
H      3.494232    0.063693    2.534953
H     -2.111907    0.964002    3.218748
H     -0.019505    0.253372    2.508735
H     -0.334330   -2.347659   -0.143601
H     -1.679551   -2.079091    1.050614
H     -1.995551   -2.441697   -1.709848
H     -3.164510   -1.437850   -0.722756
H      2.135978   -0.468105   -3.251006
H     -2.918950    2.073209   -0.229308
H     -3.599822    0.551509   -0.809847
H      1.703184    0.339276    1.589831
H     -0.302360   -1.864283   -2.443533
H     -0.287769   -0.383513   -3.399050
H     -3.699393   -0.379816    1.351203
H     -0.910660    1.417547   -0.993824
H     -4.703860    1.793437    0.961456
H      5.247070    0.375645   -1.489900
H      2.401098   -0.297268   -0.409474
