39

C     -2.474333    1.826882    0.261396
C     -1.049046    1.555490    0.598978
C     -0.722154   -0.739340    1.577649
C     -0.842198   -2.092117    0.952914
C      2.629562   -1.011505   -1.140339
C     -2.832828   -0.396624   -0.670937
C      1.708071    1.123022    0.309557
C      0.357162   -2.051580   -1.143378
C      5.353981    1.168626   -0.084065
C      1.301804   -0.942170   -0.757834
C     -3.365774    0.630006    0.267528
C      0.828604    0.125950   -0.029174
C      3.516074   -0.016400   -0.804553
C      3.056313    1.063407   -0.072745
C     -1.367574   -0.552079   -0.720381
C     -0.596155    0.159211    0.359298
N     -0.918147   -1.931426   -0.475743
O     -4.622269    1.058048   -0.223743
O      4.881040    0.203602   -1.032443
O      4.139897    1.905662    0.125321
H     -2.580981    2.311463   -0.747559
H     -2.899257    2.580679    0.974826
H     -0.818984    1.875362    1.634661
H     -0.427404    2.223085   -0.066028
H      0.242723   -0.732600    2.164910
H     -1.509776   -0.457586    2.263467
H      0.054421   -2.744112    1.153066
H     -1.704836   -2.652617    1.375391
H      2.999596   -1.844030   -1.708584
H     -3.235725   -0.158790   -1.699673
H     -3.315484   -1.371199   -0.411433
H      1.358184    1.970573    0.881563
H      0.155565   -1.986980   -2.232142
H      0.813632   -3.046916   -0.919727
H      5.677382    0.662950    0.855481
H      6.115369    1.826829   -0.513437
H     -3.584964    0.232015    1.282238
H     -0.982404   -0.233360   -1.707761
H     -5.339087    0.458571    0.123433
