78

C      3.446660    1.098433    0.386155
C      0.596186   -0.488390    3.580078
C     -6.343817    1.840995    2.737526
C      9.068442   -1.201626   -0.987424
C      8.078830    0.809137   -0.059463
C     -0.915397   -1.801497    1.433449
C      5.606932   -0.168203   -0.830704
C      4.257420   -0.713406   -0.980760
C     -1.505177    0.583980    2.926393
C      0.974063    0.222974   -1.414511
C     -0.504249   -0.032745   -1.210319
C     -2.442590    1.015785    1.850094
C      6.662524   -0.734503   -1.388922
C      1.279381   -0.940111    0.815771
C     -4.378428   -1.158164   -2.750728
C      3.216574   -0.130157   -0.412442
C     -0.132757    0.247203    2.496476
C     -5.985298    1.879709    1.296432
C      1.822134   -0.633927   -0.514967
C     -0.802771    0.368300    0.197837
C     -5.795766   -1.206704   -2.322961
C     -2.266459    0.314645    0.546424
C     -6.354179   -0.005016   -1.653305
C     -5.359349    0.730519   -0.786307
C     -3.948261    0.217810   -1.034918
C      8.015019   -0.152682   -1.214075
C     -0.088894   -0.530041    1.170659
O     -5.943546    2.985961    0.736350
O     -6.581749   -1.477205   -3.469842
O     -6.993093    0.840419   -2.557782
O      8.335946    0.538062   -2.378602
O     -3.747629    0.020318   -2.400116
O     -5.704543    0.747448    0.581168
O     -2.978704    0.983622   -0.434630
H      4.264656    0.924195    1.149003
H      3.814253    1.944492   -0.227558
H      2.522172    1.453676    0.885393
H     -0.069180   -0.608428    4.456036
H      0.897027   -1.517634    3.269336
H      1.469399    0.092249    3.935197
H     -7.421748    1.640675    2.910480
H     -5.734888    1.050453    3.250601
H     -6.079120    2.804980    3.220503
H      9.983761   -0.925048   -1.541904
H      9.331545   -1.289880    0.094619
H      8.714228   -2.198408   -1.347641
H      7.621929    1.777893   -0.251612
H      7.719589    0.321558    0.874626
H      9.173107    1.001622    0.129671
H     -1.695856   -1.657036    2.176319
H     -0.197268   -2.543907    1.844321
H     -1.283922   -2.224533    0.466963
H      5.804687    0.733237   -0.251137
H      4.127330   -1.598114   -1.563422
H     -1.419960    1.460291    3.639935
H     -1.964474   -0.217896    3.578663
H      1.248848    0.094074   -2.487058
H      1.172121    1.283145   -1.166498
H     -1.038323    0.666145   -1.892222
H     -0.774323   -1.091694   -1.387405
H     -3.480639    0.767063    2.215703
H     -2.446250    2.107872    1.661412
H      6.546058   -1.637259   -1.982607
H      1.968383   -0.482335    1.589566
H      1.419702   -2.049597    1.017925
H     -3.776219   -2.033864   -2.418189
H     -4.288376   -1.206907   -3.880274
H      0.417235    1.193793    2.285093
H      1.925603   -1.607569   -1.091571
H     -0.474428    1.429220    0.332237
H     -5.946444   -2.133190   -1.686502
H     -2.637046   -0.709540    0.638220
H     -7.163452   -0.361377   -0.952566
H     -5.364626    1.788961   -1.122611
H     -3.911939   -0.792339   -0.560630
H     -7.463116   -1.756053   -3.100345
H     -6.798202    0.604880   -3.485568
H      8.700717    1.431190   -2.203651
