50

C      4.572001    2.138933    0.056678
C      5.615588    1.934781   -0.816823
C      3.862895   -0.082203   -0.312100
C     -4.600095    0.250370    0.502545
C     -4.243392   -0.121885   -1.808204
C      1.721587   -2.123482    2.362800
C     -0.564728   -2.572635    1.853784
C      0.085401    1.027670    1.279880
C      3.674572    1.125097    0.322826
C     -3.779948   -0.192489   -0.512392
C      0.680463   -3.017915    2.273772
C      0.273692   -0.399408    1.624816
C      5.815565    0.733926   -1.457943
C      4.902431   -0.286796   -1.182713
C     -5.856161    0.757001    0.271172
C     -5.517983    0.388383   -2.082906
C      1.272405    1.444033    0.438246
C      1.531896   -0.793678    2.037675
C     -0.786158   -1.257406    1.523319
C     -6.302293    0.820214   -1.025705
C      2.528581    1.333419    1.275941
C     -2.443912   -0.723901   -0.188441
O      0.859737   -4.342830    2.595143
O      6.857697    0.506211   -2.339950
O      5.075855   -1.515940   -1.815263
O     -6.645001    1.191334    1.334551
O     -5.985534    0.460045   -3.385722
O      1.400446    0.558154   -0.626551
O     -7.586647    1.337051   -1.274843
O     -1.670293   -1.136348   -1.090704
O      2.511523    0.164649    2.097297
O     -2.001839   -0.785673    1.105626
H      4.411050    3.089722    0.566274
H      6.309987    2.740550   -1.014073
H      3.173389   -0.896741   -0.122129
H     -4.200223    0.179708    1.519181
H     -3.617616   -0.463265   -2.618725
H      2.720070   -2.407513    2.684458
H     -1.353071   -3.303069    1.797378
H     -0.874668    1.232072    0.791048
H      0.190427    1.595432    2.249286
H      1.183648    2.491022    0.085549
H      2.702808    2.231800    1.892308
H      1.145107   -4.982261    1.862686
H      7.494494    1.271380   -2.510144
H      4.428501   -2.253233   -1.625697
H     -6.303246    1.136797    2.264451
H     -5.391162    0.137566   -4.137391
H      0.885039   -0.272059   -0.499583
H     -8.162885    1.653406   -0.507612
