47

C      4.503292    0.776901   -0.241185
C      4.415829   -0.749320    1.631320
C      1.754499    2.486500   -0.925952
C     -3.350026   -0.030317    1.928186
C     -2.144241   -2.079708   -0.968537
C     -0.755829   -1.749800   -0.399231
C      2.673819   -0.976816   -0.143127
C     -0.529609    2.406885   -0.133324
C      1.673916   -0.542548   -1.108459
C     -1.693826    1.769524    0.201057
C     -3.108008   -1.702164    0.164371
C     -4.172504    0.406123   -0.358787
C      3.563210   -0.046000    0.559945
C      0.585511    1.684577   -0.575136
C      0.570900    0.316160   -0.693839
C     -0.629494   -0.308418   -0.345559
C     -1.741859    0.397379    0.092360
C     -3.036332   -0.230394    0.458567
O     -5.366683   -0.207883   -0.038349
H      5.519017    0.334147   -0.148062
H      4.600337    1.819007    0.100206
H      4.305686    0.716840   -1.347669
H      5.214201   -0.072653    1.931062
H      3.768575   -1.081856    2.466194
H      4.796438   -1.670030    1.144175
H      2.348618    2.673077    0.003312
H      2.382585    2.061338   -1.729624
H      1.435147    3.508998   -1.257563
H     -2.578124    0.639239    2.369828
H     -4.376613    0.396361    2.051120
H     -3.319583   -1.006322    2.468294
H     -2.244527   -3.152136   -1.124809
H     -2.298152   -1.457337   -1.852863
H      0.015989   -2.356759   -0.819184
H     -0.829529   -2.090549    0.687762
H      2.127532   -1.573603    0.662646
H      3.375635   -1.713011   -0.662088
H     -0.495607    3.482450   -0.046232
H      1.375344   -1.408036   -1.772703
H      2.248388    0.091304   -1.884948
H     -2.571656    2.337983    0.551868
H     -4.119319   -1.989078   -0.136103
H     -2.740220   -2.250545    1.054232
H     -3.983992    0.243396   -1.444328
H     -4.240399    1.494572   -0.203040
H      2.974178    0.701444    1.187272
H     -5.902513   -0.298922   -0.858707
