50

C      1.583385   -3.092169   -3.323871
C      4.068169    0.364886    2.565109
C      5.595110   -2.010839   -1.173391
C     -1.877911    2.018964    2.093321
C     -1.297829    0.739768    2.582453
C     -0.340999    0.559413   -0.478625
C      1.157899   -1.151665   -1.368822
C      1.895077    0.004510    0.532107
C     -4.001940    2.605840    0.975316
C     -3.622988    0.556699   -0.810629
C      0.913783   -0.182717   -0.415641
C     -2.885152    1.792411    1.047653
C     -2.670403    0.756657    0.163684
C     -1.464399   -0.069276    0.296300
C     -4.931492    2.389122    0.002461
C     -4.753793    1.361703   -0.902914
C      2.319599   -1.898825   -1.381160
C      3.073570   -0.710783    0.569530
C      3.281907   -1.683150   -0.414287
N     -1.174209   -0.321362    1.657968
O     -6.038665    3.224894   -0.039322
O     -5.719895    1.179586   -1.869828
O      2.567577   -2.873479   -2.337992
O      4.062180   -0.538559    1.505054
O      4.441552   -2.441443   -0.441322
Cl     0.684113    0.000000    0.000000
H      1.963448   -3.836284   -4.053404
H      1.275137   -2.151528   -3.809860
H      0.656756   -3.541042   -2.874480
H      3.405568    1.216491    2.311238
H      5.068194    0.809067    2.763027
H      3.741274   -0.075057    3.535360
H      6.317361   -2.817198   -1.307653
H      5.182386   -1.705736   -2.178976
H      6.003139   -1.119859   -0.664479
H     -1.107087    2.737853    1.709314
H     -2.346979    2.571220    2.961181
H     -0.310293    0.911037    3.088668
H     -1.965616    0.386370    3.424288
H     -0.136131    1.606090   -0.169007
H     -0.663750    0.618594   -1.538934
H      0.412356   -1.344509   -2.147831
H      1.709921    0.761168    1.281056
H     -4.114715    3.407651    1.702814
H     -3.519487   -0.233050   -1.533006
H     -1.659196   -1.065369   -0.201241
H     -1.672713   -1.185995    1.963781
H     -6.768434    3.129444   -0.727345
H     -5.651273    0.441587   -2.567659
H     -0.684113    0.000000    0.000000
