47

C      3.920794    1.922678   -0.310012
C      4.888008   -0.275782    0.166556
C      1.599244   -2.888042    0.975852
C     -4.215307   -0.102539    1.084643
C     -1.756754    2.088765   -0.747607
C     -0.514318    1.261855   -0.746577
C      2.549076    0.222704    0.938258
C     -0.843793   -2.557394    1.097032
C      1.825694   -0.287707   -0.267248
C     -1.974836   -1.789315    0.862620
C     -2.762408    1.679554    0.275164
C     -3.750000    0.006188   -1.300982
C      3.913741    0.776395    0.642863
C      0.399123   -2.038688    0.710582
C      0.505902   -0.804705    0.115377
C     -0.658643   -0.066441   -0.101712
C     -1.901860   -0.551704    0.269387
C     -3.146185    0.225433    0.056320
O     -4.849091    0.874248   -1.400019
H      3.564130    2.860670    0.205824
H      3.413787    1.752191   -1.257571
H      4.996578    2.138874   -0.549825
H      5.873819   -0.212953    0.681706
H      5.041060   -0.296330   -0.916947
H      4.456875   -1.274550    0.461414
H      2.408972   -2.758083    0.258979
H      1.277583   -3.965950    0.885043
H      1.920863   -2.813080    2.055441
H     -3.717094   -0.308006    2.075836
H     -4.926222    0.721591    1.211537
H     -4.745638   -1.048798    0.801459
H     -2.189823    2.142885   -1.776148
H     -1.512194    3.171504   -0.521163
H     -0.169308    1.165916   -1.806252
H      0.294252    1.864135   -0.257004
H      1.984871    1.018381    1.476762
H      2.693281   -0.583916    1.685953
H     -0.864153   -3.530991    1.560161
H      1.683806    0.549989   -0.994193
H      2.479790   -1.010755   -0.776310
H     -2.929404   -2.228601    1.178751
H     -3.622492    2.344824    0.254696
H     -2.229118    1.689953    1.268333
H     -3.064258    0.275349   -2.128209
H     -4.076392   -1.028183   -1.404060
H      4.360356    1.171157    1.605506
H     -5.632315    0.497276   -0.951769
