66

C      4.877842   -1.763613   -1.882163
C      6.228554   -1.976153   -1.703821
C      5.202904    0.539859   -1.551027
C      0.710616    0.628847    2.574277
C     -2.003690    0.528704    2.787810
C     -5.886723   -2.405794   -0.302811
C      0.850913    1.057828   -1.927033
C      2.576125   -0.946970    0.051027
C      8.772746    0.434233   -0.774347
C     -0.357535    1.261237    5.989197
C      4.326635   -0.479569   -1.808364
C     -0.029118    0.490482    1.419769
C      2.259547    0.856438   -1.424123
C      2.024343    0.452218    0.010992
C      7.094066   -0.934927   -1.445419
C     -1.419054    0.440092    1.538952
C      6.563182    0.334817   -1.370324
C      0.149156    0.718460    3.822993
C     -1.221268    0.668983    3.942545
C     -5.312684   -1.002766   -0.252982
C     -5.785054   -0.282321   -1.493162
C     -4.826143    0.820064   -1.805067
C     -4.088994    1.348052   -0.605722
C      2.891158   -0.360960   -2.011193
C      0.547719    0.394505    0.093475
C     -3.511105    0.227916    0.239965
O     -5.479052   -3.194681    0.745632
O     -7.102184    0.156063   -1.367502
O     -3.882706    0.478474   -2.773443
O     -4.873014    2.222997    0.142352
O      2.273993   -1.388192   -1.258061
O      0.169290    1.458304   -0.758184
O      8.480860   -0.861185   -1.226576
O      7.617040    1.211796   -1.103546
O      0.691247    0.860779    5.115812
O     -1.497972    0.780894    5.297404
O     -2.139531    0.302282    0.382009
O     -3.918701   -1.024063   -0.289670
H      4.259783   -2.629694   -2.081699
H      6.655690   -2.972318   -1.761042
H      4.815092    1.532209   -1.488385
H      1.789320    0.671688    2.521729
H     -3.081035    0.493862    2.924859
H     -5.649575   -2.902848   -1.261059
H     -7.003639   -2.277796   -0.293879
H      0.786671    1.876892   -2.673058
H      0.406074    0.124913   -2.336195
H      2.023281   -1.541175    0.780727
H      3.645284   -1.006027    0.264235
H      8.955568    0.473618    0.315585
H      9.604428    0.852487   -1.377102
H     -0.252982    0.817788    6.999080
H     -0.420888    2.363070    5.994290
H      2.796683    1.786865   -1.552553
H      2.524078    1.159324    0.660164
H     -5.649196   -0.470533    0.658860
H     -5.765349   -1.040330   -2.322760
H     -5.430251    1.683560   -2.205972
H     -3.216407    1.928257   -0.983016
H      2.553967   -0.521227   -3.050944
H      0.215789   -0.528882   -0.468901
H     -4.032673    0.289528    1.210288
H     -5.375230   -2.718172    1.585357
H     -7.518647    0.271768   -2.255594
H     -4.349391    0.483158   -3.659058
H     -4.259856    2.609493    0.836373
