27

C     -1.485525   -1.291367    0.272019
C     -0.285505   -0.004733    1.966272
C     -1.578749    1.665811   -0.266819
C      2.167330   -0.300425    0.385597
C     -0.277615    0.112280   -1.753896
C      0.912293   -1.069949    0.031810
C      0.726716   -0.950380   -1.459783
C      2.055494    1.037600   -0.252051
C     -0.322882   -0.365356    0.519550
C     -0.380241    0.812089   -0.408575
O      1.280635   -1.591449   -2.326750
O      3.064636    1.614764   -0.738368
O      0.783515    1.606172   -0.278347
H     -1.358790   -1.854882   -0.690889
H     -2.464200   -0.829788    0.380743
H     -1.413465   -2.093397    1.064158
H     -0.400254   -0.933795    2.554741
H     -1.182545    0.611666    2.180769
H      0.587319    0.596979    2.263301
H     -1.391674    2.393688    0.565264
H     -1.668066    2.298140   -1.186879
H     -2.515696    1.165291   -0.040338
H      3.042459   -0.865631    0.015657
H      2.304147   -0.161290    1.464254
H      0.084811    0.848073   -2.487106
H     -1.245262   -0.318944   -2.078380
H      0.961115   -2.131166    0.304048
