39

C     -4.544947   -0.284092    1.299104
C      4.813377   -0.953702    0.768277
C      3.562248   -1.534274    0.531923
C     -2.920639    1.200083    0.191429
C     -2.112437   -1.018781    0.718166
C     -1.853644   -0.091974   -1.528553
C     -0.704679    1.889236   -0.458026
C      3.879646    1.193128    0.503704
C     -3.181515    0.009447    0.716364
C     -1.971930    1.309450   -0.972572
C     -1.207997   -0.974776   -0.464773
C      4.964826    0.405626    0.752831
C      2.461855   -0.750415    0.279806
C      2.646916    0.620714    0.270839
C      0.354688    0.911436   -0.208457
C      0.118121   -0.434420   -0.210938
C      1.185860   -1.273186    0.036373
Cl     6.527921    1.136406    1.047948
N      1.044751   -2.541946    0.050843
N      1.605086    1.408669    0.030587
Cl     0.683179    0.000000    0.000000
H     -4.975457   -1.143574    0.744811
H     -5.191887    0.580668    1.165817
H     -4.469745   -0.481556    2.386545
H      5.665931   -1.563377    0.963699
H      3.481857   -2.611118    0.552266
H     -3.407044    2.069840    0.623021
H     -2.635519   -2.016766    0.794621
H     -1.505129   -0.926036    1.653031
H     -2.912216   -0.474273   -1.617153
H     -1.335547   -0.135224   -2.485570
H     -0.365613    2.664971   -1.190424
H     -0.847435    2.465387    0.501279
H      4.021432    2.271928    0.495874
H     -2.462032    1.929027   -1.754263
H     -1.182337   -2.003999   -0.929063
H      1.696837   -3.292607    0.210040
H      1.756397    2.440081    0.026322
H     -0.683179    0.000000    0.000000
