70

C     -6.415228    2.985900    1.277553
C     -5.879039    1.942653    2.007966
C     -6.314310    2.947972   -0.103348
C      0.362102   -4.393504   -0.415362
C      0.062960   -4.104579    1.042886
C      6.787419    3.314039    0.414187
C     -5.257872    0.889332    1.362221
C     -5.690946    1.889432   -0.731347
C      5.680808    2.780475    1.027378
C      1.168840   -3.275412   -0.984595
C     -1.384495    0.206181   -2.525640
C     -2.713235    0.280677   -2.205635
C      3.242230    2.299117    0.282612
C     -0.827453   -2.863552    1.066419
C      0.232471   -0.704220    1.611699
C      3.190156    0.841867   -0.088634
C      1.426655    0.138868    1.378700
C      6.370691    3.618586   -0.877284
C      0.882106   -0.503007   -1.996752
C     -2.312301   -0.899975   -0.156364
C     -0.534490   -0.434242   -1.632312
C      4.636062    2.777748    0.095215
C     -5.144405    0.827557   -0.007355
C     -3.196213   -0.264789   -1.028675
C      1.245772   -2.076563   -0.096007
C     -0.969820   -0.983042   -0.465365
C      1.750123   -0.849699   -0.809954
C     -0.082106   -1.668652    0.492763
N      1.892990    0.259548    0.048038
O      5.126078    3.290396   -1.008275
O     -4.537744   -0.195960   -0.696378
C     -0.703403    0.152794   -0.135187
C      0.739391    0.093898    0.164611
O     -1.643816    0.103935    0.876766
O     -1.125931    0.249099   -1.316972
O      1.679044    0.142489   -0.843920
O      1.105272   -0.001289    1.351557
H     -6.911937    3.832979    1.738476
H     -5.949896    1.958574    3.071419
H     -6.742987    3.782446   -0.678679
H     -0.571223   -4.554605   -0.988434
H      0.936160   -5.359049   -0.490804
H      1.018771   -3.942211    1.547179
H     -0.509861   -4.949342    1.439970
H      7.783171    3.477260    0.816418
H     -4.837706    0.071187    1.945707
H     -5.613252    1.864178   -1.828584
H      5.611633    2.424123    2.037622
H      2.214129   -3.629016   -1.156090
H      0.767306   -3.046534   -1.995076
H     -1.032070    0.646047   -3.462441
H     -3.423129    0.768400   -2.864586
H      2.486790    2.905782   -0.216165
H      3.056762    2.347819    1.393593
H     -1.710404   -3.119716    0.423401
H     -1.232452   -2.663988    2.075442
H      0.339153   -1.319292    2.532686
H     -0.676080   -0.084988    1.764558
H      3.901752    0.288325    0.571791
H      3.515516    0.713888   -1.136461
H      1.237363    1.158100    1.778618
H      2.263770   -0.268886    2.009318
H      7.039499    4.063013   -1.613277
H      1.251415    0.490718   -2.377694
H      1.041898   -1.197531   -2.857571
H     -2.737918   -1.308083    0.745821
H      1.937319   -2.273191    0.744641
H      2.748702   -1.149557   -1.249154
H     -2.567074   -0.286266    0.656694
H      2.516517   -0.454660   -0.753549
