52

C     -5.524399    0.622387   -0.050997
C     -4.638381    0.226773   -0.948805
C      0.032656   -1.343614   -0.673027
C      1.346698   -1.184014   -0.241252
C     -5.173315    0.780170    1.254836
C      4.045461   -0.655084    0.669546
C     -0.848138   -0.297951   -0.835442
C      1.764698    0.095914    0.031867
C     -3.358411   -0.020872   -0.536628
C      5.262816    0.041912    1.123664
C     -0.351947    0.976720   -0.537974
C      0.930065    1.180132   -0.111408
C     -2.210484   -0.466506   -1.289467
Cl    -1.389605    2.354931   -0.713872
Cl     1.505549    2.816117    0.249917
O      5.277703    1.280124    1.244772
O      6.397121   -0.686211    1.416497
O     -2.411073   -1.026513   -2.393792
O      3.040969    0.311246    0.457794
S     -3.383350    0.320045    1.227385
C     -0.493635   -0.746564    0.609666
C     -1.375772   -0.126522   -0.451326
C      0.754538   -1.290774   -0.019171
C     -2.653644    0.435200    0.096988
C      1.593343   -0.268015   -0.730183
C      2.053269    0.806797    0.179654
N     -2.488704    1.465877    1.069122
N      2.758639   -0.959732   -1.241594
O      3.287345    0.956077    0.373885
O      1.143050    1.648059    0.818013
H     -6.605373    0.845477   -0.334068
H     -4.879921    0.083319   -2.031960
H     -0.349497   -2.330251   -0.902193
H      1.966478   -2.062994   -0.142733
H     -5.689982    1.080504    2.149544
H      4.228917   -1.262774   -0.243205
H      3.676094   -1.355335    1.476310
H      7.338650   -0.323653    1.268586
H     -0.299699   -0.089692    1.471124
H     -1.064951   -1.650483    0.976137
H     -1.582242   -0.930704   -1.187891
H     -0.833670    0.679684   -0.995102
H      0.449690   -2.101295   -0.710173
H      1.400350   -1.699317    0.812536
H     -3.213260    0.862646   -0.768870
H     -3.210413   -0.408919    0.559025
H      1.072731    0.148581   -1.619525
H     -1.527904    1.525061    1.415220
H     -2.896673    2.374192    0.776387
H      3.108165   -1.638026   -0.509757
H      2.540686   -1.536611   -2.081251
H      1.478764    2.544480    1.157088
