73

C     -8.207181    1.133791    1.364483
C      8.484098    0.832752    1.153706
C     -7.830380    1.224911    0.042355
C     -7.244104    0.715344    2.269406
C      7.858596   -0.302903    1.619088
C      7.932496    1.468910    0.066103
C     -0.114305   -3.167010   -0.030528
C      0.597299   -3.043424   -1.330725
C     -6.535744    0.911562   -0.380194
C     -5.964443    0.406506    1.847111
C      6.713064   -0.778056    1.003696
C      6.792557    1.024813   -0.572890
C     -0.110366   -1.844076    0.750272
C      2.415414    1.250095    1.071910
C      3.682796    0.819800    0.708028
C     -4.234918    0.177580    0.035293
C      0.347080   -1.802773   -2.109999
C     -0.399207    0.563132   -2.078299
C     -3.338738    1.389973    0.054239
C     -1.847835    0.864218   -1.772525
C     -0.017261    1.303523    0.868408
C      2.677374   -0.542306   -0.996708
C     -5.587080    0.496489    0.530488
C      1.294757    0.787938    0.407468
C      6.189719   -0.112540   -0.084969
C      3.803606   -0.087846   -0.340728
C     -0.798651   -0.856023   -0.158002
C      1.431600   -0.119187   -0.639049
C     -1.172552    0.437087    0.502915
C      0.175918   -0.567413   -1.294525
N     -2.028761    1.156546   -0.403169
O      5.033900   -0.549845   -0.744426
C     -0.729399    0.039962   -0.143853
C      0.693562   -0.170258    0.086251
O     -1.681034   -0.199351    0.797457
O     -1.094234    0.463939   -1.269750
O      1.655705    0.077490   -0.882212
O      1.107172   -0.593192    1.196282
H     -9.219786    1.382410    1.673721
H      9.378977    1.237215    1.604320
H     -8.597050    1.557115   -0.666808
H     -7.550153    0.645723    3.312577
H      8.308311   -0.797832    2.485040
H      8.395472    2.365155   -0.328075
H     -1.157521   -3.524809   -0.123110
H      0.417133   -3.953271    0.571586
H      1.687270   -3.267849   -1.157390
H      0.253306   -3.907644   -1.973126
H     -6.352190    1.019278   -1.439718
H     -5.253304    0.090136    2.567511
H      6.232237   -1.674354    1.381049
H      6.401391    1.560576   -1.419564
H      0.983243   -1.607887    0.882881
H     -0.599340   -1.982923    1.715638
H      2.311069    1.955469    1.886153
H      4.582812    1.154254    1.199777
H     -4.346603   -0.249749   -0.983660
H     -3.811703   -0.607752    0.676880
H     -0.619954   -1.951925   -2.670729
H      1.119894   -1.685191   -2.881613
H     -0.272282    0.349873   -3.168370
H      0.168937    1.518938   -1.900276
H     -3.814799    2.161767   -0.598476
H     -3.293207    1.730913    1.111759
H     -2.465887    0.040772   -2.177777
H     -2.081048    1.803068   -2.356813
H     -0.120632    2.311010    0.374318
H     -0.006847    1.511035    1.963220
H      2.791135   -1.240951   -1.798868
H     -1.711771   -1.339701   -0.531521
H     -1.755862    0.205565    1.411232
H     -2.600572    0.253913    0.829466
H      2.648800    0.127498   -0.692911
