63

C     10.391048   -1.116964   -1.317653
C     -0.570721    1.278359    1.082492
C     -0.354339    0.018035    1.893873
C     -1.301537    0.999389   -0.205652
C      0.458577   -0.965456    1.101594
C     -8.135722   -1.915485   -0.934466
C      6.423310   -0.480930    0.336401
C     -5.896371   -0.973904   -1.474094
C      4.443687    0.907421   -0.103069
C     -9.286773   -1.828439   -0.285273
C      7.405862   -1.036887   -0.317329
C     -4.803150   -0.523722   -0.572076
C      3.970094    0.668691    1.281113
C     -8.612244    0.480950    0.677607
C      7.748879    0.976782   -1.580146
C     -9.405642   -0.773590    0.728368
C      8.111740   -0.264108   -1.336377
C     -7.611171    0.448539   -0.438792
C      6.664347    1.699160   -0.909197
C     -3.518597    0.050685   -0.925868
C      2.699594    0.069961    1.704357
C     -7.085244   -0.945661   -0.577241
C      5.980276    0.887360    0.107221
Br   -10.737686   -2.996458   -0.623231
Br     7.908079   -2.839375    0.060187
Br    -7.605968    0.716964    2.334610
Br     8.739258    1.909776   -2.939254
N     -2.604442    0.419178    0.077801
N      1.733395   -0.369738    0.778528
N     -5.216054   -0.743782    0.645556
N      4.881473    1.084213    2.086571
O    -10.214612   -0.923409    1.694279
O     -8.170722    0.815767   -1.664345
O      5.710869    2.158125   -1.841738
O     -3.231427    0.215052   -2.125396
O      2.460865   -0.056881    2.929227
O      9.148087   -0.899351   -2.003195
O     -6.462239   -1.290056    0.673298
O      5.968565    1.599770    1.383647
H     10.830868   -0.141608   -1.000698
H     10.259270   -1.750294   -0.424657
H     11.121914   -1.604155   -1.989629
H     -1.192535    1.998242    1.657637
H      0.423733    1.710473    0.890823
H      0.199243    0.280775    2.810370
H     -1.317153   -0.411338    2.247583
H     -1.402574    1.978404   -0.730979
H     -0.694895    0.353550   -0.884429
H     -0.054196   -1.275327    0.163147
H      0.580283   -1.915222    1.676825
H     -8.015837   -2.670482   -1.677214
H      5.881535   -1.064544    1.114183
H     -5.994600   -0.318963   -2.365456
H     -5.630886   -2.024578   -1.773985
H      4.145986    0.112709   -0.804516
H      4.193397    1.915467   -0.467732
H     -9.271508    1.368039    0.494643
H     -6.731813    1.112971   -0.242498
H      7.040427    2.634070   -0.410009
H     -2.881912    0.264991    1.092231
H      1.985651   -0.242092   -0.236346
H     -8.896866    0.154842   -1.871672
H      5.399121    3.074088   -1.635493
