36

C     -1.302467   -2.753036   -0.743785
C     -1.702375   -1.416126    2.165671
C      3.492534   -0.148174    1.513457
C      2.143253    0.027088    1.229727
C      3.865689    0.004376   -0.827589
C     -0.053551    1.818590   -0.649459
C     -3.401943    2.319942   -1.732905
C     -2.290275    2.557455    0.086194
C     -1.275040   -1.314562   -0.303087
C     -0.668185   -1.177196    1.098521
C      4.346136   -0.154346    0.435598
C      1.639680    0.189670   -0.043781
C      2.528529    0.177516   -1.108226
C      0.181251    0.399068   -0.213312
Cl     6.071866   -0.372913    0.738789
Cl     1.907801    0.350946   -2.714849
N     -3.536939    2.704590   -0.459961
N     -2.130099    1.953460   -1.957433
N     -1.454602    2.101579   -0.838344
O     -0.405626   -0.533612   -1.030034
O     -0.395588    0.189213    1.070457
H     -1.887158   -3.322273    0.018855
H     -0.312727   -3.211940   -0.810140
H     -1.896690   -2.799726   -1.674208
H     -1.989863   -2.469380    2.225091
H     -2.565234   -0.749046    1.936153
H     -1.285714   -1.053288    3.123663
H      3.843858   -0.272245    2.529347
H      1.469539    0.031830    2.097746
H      4.554602   -0.002924   -1.669377
H      0.360768    2.524283    0.138912
H      0.551950    2.033077   -1.539176
H     -4.202576    2.312190   -2.453049
H     -2.123385    2.806631    1.130686
H     -2.300635   -0.941889   -0.262647
H      0.223213   -1.808828    1.203217
