73

C     -7.173126    3.311861   -0.011299
C      7.304128    2.965226   -0.256571
C     -6.578183    2.961417    1.184817
C     -6.467530    3.157083   -1.192292
C      6.348534    3.342158    0.665422
C      7.356648    1.682914   -0.755131
C     -0.212703   -4.638300   -0.605553
C      0.376761   -4.568433    0.749684
C     -5.297996    2.469249    1.148452
C     -5.180599    2.660221   -1.209028
C      5.415658    2.391584    1.097462
C      6.414357    0.764702   -0.303855
C     -0.271126   -3.303124   -1.342331
C      1.867594    0.697263   -1.392485
C      3.055551    0.822883   -0.711981
C     -3.209722    1.766848    0.062186
C      0.922183   -3.247820    1.166996
C     -0.534945   -1.328882    1.804971
C     -3.213616    0.236555   -0.030439
C     -1.211245   -0.083493    1.275996
C     -0.335075   -0.318314   -1.729645
C      2.367942   -0.883601    0.806759
C     -4.578733    2.308384   -0.026288
C      0.946866   -0.231915   -0.946223
C      5.451027    1.107450    0.612336
C      3.301269    0.028991    0.388477
C     -0.844250   -2.336030   -0.355227
C      1.144762   -1.031712    0.127685
C     -1.395898   -1.074846   -0.936399
C      0.198170   -2.051047    0.662189
N     -1.891149   -0.222077    0.061323
O      4.525113    0.191450    1.050421
C      0.677478   -0.237345    0.126522
C     -0.687753    0.237396    0.095339
O      1.757907    0.622246    0.031033
O      0.868261   -1.484969    0.245797
O     -1.765623   -0.621720    0.190832
O     -0.868212    1.492388   -0.024839
H     -8.188898    3.702327    0.012408
H      8.021683    3.718273   -0.581171
H     -7.091366    3.063758    2.138067
H     -6.989720    3.452071   -2.112462
H      6.315385    4.348166    1.049504
H      8.126001    1.446898   -1.473079
H      0.312696   -5.389560   -1.266842
H     -1.268727   -5.003548   -0.576003
H      1.206304   -5.338135    0.791833
H     -0.373946   -4.938049    1.480429
H     -4.835994    2.194823    2.105931
H     -4.638153    2.543179   -2.137988
H      4.683809    2.720154    1.817902
H      6.438194   -0.241354   -0.680732
H     -0.985738   -3.434379   -2.176707
H      0.741994   -3.020064   -1.696721
H      1.659996    1.310836   -2.255227
H      3.807201    1.531946   -1.018113
H     -2.540146    2.173291   -0.704828
H     -2.804467    2.020959    1.060443
H      0.976240   -3.195805    2.270868
H      1.973853   -3.203203    0.810605
H     -1.336619   -2.021303    2.137966
H      0.158088   -1.043104    2.605812
H     -3.684646   -0.025675   -0.996678
H     -3.914104   -0.165473    0.755842
H     -1.867043    0.302806    2.067736
H     -0.391042    0.682047    1.142856
H     -0.167659   -0.765627   -2.716356
H     -0.638685    0.733734   -1.907205
H      2.585773   -1.492468    1.678206
H     -1.691228   -2.858855    0.154675
H     -2.199704   -1.355311   -1.652411
H      2.636660    0.302819   -0.363354
H     -2.618718   -0.310814   -0.301331
