64

C      7.114433    2.981428    0.590390
C      6.257186    3.355535   -0.423284
C      6.952832    1.708294    1.094771
C     -0.497144   -4.127017    0.513609
C     -0.300054   -4.090138   -0.968598
C     -6.132120    1.669860    0.592419
C     -5.173552    0.504416    0.465127
C     -4.940315    2.596062    0.506439
C      5.285014    2.516651   -0.919058
C      5.990350    0.845888    0.620451
C     -1.078670   -2.862696    1.080960
C      1.295563    1.045602    1.229791
C      2.589237    1.139281    0.713751
C      0.534455   -2.886135   -1.347682
C     -0.760781   -0.960191   -2.161138
C     -1.401868    0.343616   -1.738975
C     -1.003380    0.073743    1.300419
C      2.004907   -0.574286   -0.813045
C     -2.970309    1.426642   -0.403023
C     -3.992019    1.424074    0.682384
C      0.362646    0.150030    0.730027
C      5.166079    1.260399   -0.382590
C      2.930711    0.306047   -0.325885
C     -1.395102   -1.930385   -0.040723
C      0.721468   -0.668877   -0.302904
C     -1.995238   -0.629038    0.404656
C     -0.194218   -1.660583   -0.916748
N     -2.339383    0.201146   -0.682275
O      4.208780    0.387999   -0.846753
Cl     0.686124    0.000000    0.000000
H      7.889537    3.652929    0.984319
H      6.347906    4.360234   -0.856473
H      7.616604    1.375381    1.902107
H     -1.151915   -5.020386    0.729161
H      0.491034   -4.382445    0.976723
H      0.281791   -4.991248   -1.252710
H     -1.246772   -4.068184   -1.540374
H     -6.811060    1.679670   -0.279380
H     -6.612542    1.770159    1.580695
H     -5.366489   -0.205764    1.314640
H     -5.131394    0.042457   -0.532630
H     -4.920333    3.060411   -0.507110
H     -4.884193    3.373124    1.285935
H      4.609831    2.823712   -1.723875
H      5.873664   -0.168373    1.033871
H     -2.023036   -3.127183    1.589119
H     -0.367720   -2.460677    1.813500
H      0.980650    1.678174    2.045557
H      3.278298    1.857618    1.142755
H      1.524419   -2.961200   -0.841148
H      0.660426   -2.908802   -2.459724
H      0.054625   -0.812474   -2.877387
H     -1.548958   -1.573823   -2.641641
H     -0.568802    1.002815   -1.382906
H     -1.872927    0.873904   -2.569877
H     -1.295292    1.138257    1.503709
H     -0.978452   -0.395418    2.325070
H      2.294854   -1.214337   -1.624792
H     -2.205937    2.191866   -0.145057
H     -3.474379    1.833710   -1.328689
H     -3.666602    1.371585    1.717554
H     -2.152758   -2.442255   -0.691200
H     -2.863588   -0.900807    1.053752
H     -0.686124    0.000000    0.000000
