75

C      6.245603   -2.788859    1.090803
C      3.306223   -2.356965    1.208892
C     -6.588977   -3.651883    1.364928
C      5.424626   -2.220966    2.200174
C      2.960641    1.286270   -3.166531
C      2.066671    0.537345   -3.897985
C      2.994498    1.190342   -1.769192
C      1.182013   -0.324418   -3.289421
C     -2.920472   -1.047602   -0.378918
C     -2.510542   -2.722379    1.198658
C     -1.663361    3.340741   -1.325285
C     -4.277297   -1.337472   -0.341972
C     -3.844465   -3.039457    1.264453
C     -2.153360    4.451262   -1.991689
C      4.613479   -0.393132    0.930694
C      3.593122    0.644868    0.772691
C     -3.064919    3.878687    0.513846
C     -1.994205   -1.732259    0.390849
C     -2.121900    3.050199   -0.061623
C     -4.736835   -2.330655    0.477869
C     -3.092243    5.282048   -1.425466
C      2.109673    0.328648   -1.152278
C     -3.543199    4.984731   -0.166333
C      1.216077   -0.419865   -1.889577
C     -0.253985   -0.083407    0.963776
C     -0.524590   -1.414975    0.347154
C      1.216687    0.085887    1.198117
C     -1.647736    1.905134    0.698715
Cl    -3.701255    6.680505   -2.278324
N      4.272562   -1.469887    1.790789
N      2.300117    0.360281    0.284612
N     -4.516247    5.852331    0.398428
O      1.574715   -0.027074    2.399464
O     -2.064434    1.651491    1.858517
O     -5.361602    6.563222   -0.404111
O     -4.577025    5.944207    1.636610
O     -6.087317   -2.624025    0.518478
O     -0.697190    1.017785    0.186081
S      0.023376   -1.583225   -1.330535
C     -0.701854   -0.099633    0.158047
C      0.744871   -0.108979   -0.152867
O     -1.661050   -0.248462   -0.823246
O     -1.103626    0.045921    1.339325
O      1.665604    0.044834    0.872929
O      1.092803   -0.257177   -1.345571
H      5.792704   -3.635538    0.574007
H      6.576614   -2.059774    0.330563
H      7.195114   -3.160141    1.566990
H      2.923367   -2.022262    0.227125
H      2.508175   -2.656168    1.928220
H      3.822048   -3.342966    0.964394
H     -6.382689   -3.448502    2.430775
H     -6.099578   -4.606975    1.128260
H     -7.669361   -3.783984    1.201344
H      6.065063   -1.615611    2.878463
H      5.056288   -3.083225    2.802968
H      3.651803    1.958702   -3.669500
H      2.082672    0.648668   -4.977359
H      3.667701    1.745101   -1.178795
H      0.479736   -0.911059   -3.867181
H     -2.560636   -0.260597   -1.028445
H     -1.839969   -3.283850    1.814531
H     -0.928996    2.728649   -1.824533
H     -4.990540   -0.796200   -0.948002
H     -4.242284   -3.823017    1.904219
H     -1.800215    4.694378   -2.994876
H      5.500201    0.125686    1.436960
H      4.971488   -0.867664   -0.014458
H      3.350059    0.834309    1.921612
H      3.988610    1.682361    0.611753
H     -3.462685    3.701526    1.500102
H     -0.774861   -0.053800    1.938052
H     -0.036756   -2.175527    0.994106
H     -2.595793    0.120642   -0.684898
H      2.559046    0.502855    0.636283
