24

C      0.344193   -1.629625   -1.598379
C      3.276707    1.330427   -0.394107
C     -2.991511    1.115195    1.077565
C     -1.994177    1.709056    0.329077
C     -2.859648   -0.205931    1.404525
C     -0.894960    0.986915   -0.076947
C     -1.745570   -0.910393    0.984695
C     -0.733474   -0.345912    0.236777
C      1.716291   -0.490613    0.039631
C      0.413776   -1.172623   -0.165532
Cl     0.409361   -2.645358    0.834175
O      2.563842   -0.997574    0.815779
O      2.031246    0.706325   -0.608784
H     -0.018327   -2.679292   -1.687417
H     -0.304442   -1.017176   -2.232609
H      1.355904   -1.621936   -2.054954
H      3.122462    2.421815   -0.273844
H      3.778655    0.958807    0.526280
H      3.973517    1.174929   -1.230585
H     -3.839733    1.712650    1.378638
H     -2.083893    2.753322    0.062384
H     -3.643541   -0.674029    1.993198
H     -0.156307    1.481059   -0.649324
H     -1.720372   -1.960038    1.289760
