60

C     -3.732992   -2.079473    1.058366
C      8.895489   -1.059230    1.772495
C     -8.069872    0.830473    0.242359
C     -7.120035    0.177644   -0.499331
C     -7.721378    1.290377    1.490088
C     -5.820445   -0.037625   -0.041329
C     -6.422195    1.080597    1.960204
C      4.943153   -0.123547    0.956448
C      5.115111   -1.068112   -1.222914
C     -1.082717    3.232753   -1.676839
C      6.248897   -0.442896    1.199679
C      6.446173   -1.380137   -0.941746
C     -1.117386    1.910442   -1.333641
C     -2.001566   -0.400374    0.756205
C     -1.648588   -0.600229   -0.696654
C      1.201386    3.063325   -2.209238
C     -4.134707    0.219203    1.731992
C     -5.480689    0.423128    1.202443
C      4.352065   -0.437247   -0.275397
C      0.067027    3.831885   -2.117950
C      7.022023   -1.074529    0.259481
C     -0.000052    1.118366   -1.414844
C      1.149485    1.733498   -1.859919
C      2.130858   -1.343800   -0.593344
C      2.952894   -0.108498   -0.574869
C      0.720076   -1.236932   -0.890158
Cl     0.091524    5.549925   -2.559261
N     -3.325977   -0.741257    1.093688
N     -0.286731   -0.232575   -1.005082
O      2.683488   -2.205453   -1.569970
O      0.210035   -2.397896   -1.122059
O      8.345035   -1.393365    0.518893
S      2.734801    0.909504   -2.049239
H     -4.499910   -2.243886    1.872972
H     -2.867346   -2.719337    1.387206
H     -4.057019   -2.508747    0.106060
H      8.728816    0.013517    2.030070
H      8.428324   -1.650209    2.591098
H      9.967958   -1.258791    1.778485
H     -9.068183    0.974496   -0.156021
H     -7.418111   -0.175277   -1.478228
H     -8.475105    1.801602    2.063338
H     -5.153874   -0.560590   -0.710055
H     -6.221157    1.472807    2.954299
H      4.349097    0.372411    1.705141
H      4.741797   -1.337540   -2.182434
H     -1.991383    3.810449   -1.594327
H      6.693137   -0.192851    2.160109
H      7.028136   -1.878276   -1.705523
H     -2.045546    1.487695   -0.991606
H     -1.345389   -1.085111    1.387174
H     -1.745365    0.597125    1.159884
H     -1.654900   -1.746128   -0.779302
H     -2.408942   -0.371016   -1.429954
H      2.110106    3.511531   -2.551277
H     -3.639196    1.236407    1.738215
H     -4.158890   -0.044826    2.833270
H      2.317687   -1.883654    0.374701
H      2.572107    0.504790    0.298555
H      2.468960   -3.134535   -1.303880
