35

C     -0.358094    3.420706   -0.809606
C      4.427964    0.791552    0.074309
C     -4.279191   -2.146748    0.306210
C      3.593060    1.252581    1.064270
C      4.014357   -0.246074   -0.746054
C     -4.140832   -1.008405   -0.424100
C     -3.156077   -2.695797    0.859907
C      2.336248    0.677180    1.240196
C      2.757128   -0.802614   -0.550427
C     -2.937868   -0.386052   -0.632636
C     -1.909780   -2.083719    0.665639
C      0.573440   -0.984089    0.597335
C      1.907512   -0.354426    0.435186
C     -1.802054   -0.947723   -0.068568
C     -0.541402    1.136952   -0.000525
C     -0.471559   -0.313476   -0.253096
O     -0.822919    1.546198    1.148173
O     -0.168432   -0.506735   -1.626959
O     -0.298947    2.034327   -1.019793
H      0.538529    3.897011   -1.276874
H     -0.317536    3.632489    0.283266
H     -1.247884    3.871858   -1.294878
H      5.410199    1.222656   -0.082421
H     -5.254094   -2.620293    0.454707
H      3.897242    2.046868    1.699881
H      4.665436   -0.602982   -1.515278
H     -5.034544   -0.569701   -0.865782
H     -3.225207   -3.596197    1.444383
H      1.719937    1.072026    2.031130
H      2.448281   -1.615402   -1.202329
H     -2.855414    0.508623   -1.211072
H     -1.056975   -2.571250    1.138988
H      0.643298   -2.073720    0.279908
H      0.285224   -0.999766    1.657684
H      0.660955    0.014143   -1.800774
