71

C     -5.303824   -3.484171    3.600263
C      2.880777    1.229910    1.633522
C     -7.351023    4.285404    0.617395
C     -4.855742   -2.132824    3.132959
C      9.870878    1.405026    1.601929
C      9.976593    0.925712    0.320621
C      8.588225    1.589665    2.129124
C      8.856635    0.633228   -0.429255
C      7.470230    1.294968    1.373414
C     -3.428896    1.676102   -0.443827
C     -5.605852    0.687666   -0.561227
C      0.935488   -2.775361   -3.697640
C     -4.021693    2.845457   -0.058667
C     -6.198020    1.877387   -0.170380
C      0.797484   -2.280712   -2.418609
C      1.507730    0.510534   -0.309002
C      1.017982   -0.906242   -0.096468
C     -1.222149   -1.855438   -4.253399
C      6.367023    0.507324   -0.697415
C      7.595988    0.815046    0.089962
C     -4.241159    0.567709   -0.701992
C     -0.080574   -2.551201   -4.589468
C     -5.391270    2.968441    0.083317
C     -0.343582   -1.579857   -2.066217
C     -1.360314   -1.361133   -2.976809
C     -4.111784   -2.300538    1.860030
C     -2.840224   -1.382923   -0.060975
C     -3.634777   -0.723145   -1.120838
C     -1.446367   -0.956707    0.105770
C      3.953582    0.522549   -0.469394
Cl     0.112018   -3.192871   -6.228218
N      2.789107    0.754686    0.285056
N     -0.260606   -1.157391   -0.681618
O     -3.948136   -3.438329    1.347113
O     -1.202741   -0.276588    1.136287
O      3.926571    0.103145   -1.667104
O     -5.944168    4.193215    0.481334
O      5.207601    0.746919    0.075963
O     -3.559079   -1.236121    1.165895
S     -2.869262   -0.474674   -2.703467
H     -4.854611   -4.319101    3.004205
H     -5.069376   -3.672223    4.678567
H     -6.398637   -3.606932    3.506118
H      3.202560    0.392964    2.308389
H      3.670725    2.015103    1.771794
H      1.940283    1.702695    1.995136
H     -7.660654    5.261392    0.989263
H     -7.828269    4.129758   -0.381767
H     -7.757320    3.511451    1.302167
H     -4.135154   -1.669091    3.863881
H     -5.685259   -1.405198    3.040801
H     10.759924    1.629238    2.176509
H     10.993564    0.789040   -0.071593
H      8.462456    1.961899    3.125276
H      8.964432    0.256581   -1.437112
H      6.457381    1.434085    1.771551
H     -2.378741    1.515027   -0.573516
H     -6.290635   -0.151896   -0.751261
H      1.807890   -3.322564   -4.002815
H     -3.369077    3.686706    0.134554
H     -7.273551    1.976947   -0.058024
H      1.549668   -2.419968   -1.673500
H      1.620002    0.749345   -1.394122
H      0.775834    1.201400    0.178753
H      1.770344   -1.676530   -0.072391
H      0.756895   -0.863857    1.039469
H     -2.019229   -1.685726   -4.970513
H      6.348943    1.013305   -1.674316
H      6.388958   -0.601321   -0.885484
H     -2.863428   -2.497482   -0.263321
H     -4.518583   -1.408914   -1.314662
