55

C      1.355658    5.190825    0.468792
C     -4.144557   -1.577947    2.973345
C      5.383284   -2.719488    1.202129
C      0.542719    5.442277   -0.787220
C      2.840073   -0.656780   -1.329979
C      1.635050    0.222656    0.469444
C     -1.997699   -3.703113   -0.818592
C      3.668697   -1.330520   -0.493779
C      2.477448   -0.463710    1.347723
C     -2.007866   -2.430777   -0.251976
C     -3.644795   -0.094408    1.162187
C     -2.175458   -0.281163    1.194536
C     -0.694004   -2.822933   -2.601045
C      1.781766    0.153643   -0.894925
C     -1.331675   -3.883399   -2.001429
C      3.500919   -1.245458    0.871088
C     -1.374924   -1.361129   -0.839477
C     -0.698922   -1.564069   -2.048868
C      0.060768    4.145566   -1.357167
C     -0.110835    1.732202   -1.399466
C      0.966143    0.859511   -1.893770
C     -1.068493    1.125846   -0.489776
Cl    -1.287554   -5.483242   -2.764890
N     -4.232420   -0.221451    2.484853
N     -1.516539   -0.165048   -0.088741
O     -0.666627    4.236618   -2.382984
O     -1.735760    2.017587    0.176458
O      4.355182   -1.939693    1.746640
O      0.386231    2.927901   -0.803122
S      0.182481   -0.381372   -3.002275
H      2.414863    5.120323    0.189188
H      1.146081    6.016662    1.183260
H      0.988929    4.207065    0.877122
H     -3.141132   -1.883022    3.299124
H     -4.921221   -1.714823    3.754971
H     -4.433395   -2.299272    2.158056
H      6.096619   -2.972635    2.035062
H      6.008944   -2.162850    0.444426
H      5.035243   -3.636642    0.696189
H     -0.339659    6.051683   -0.541737
H      1.149970    6.006791   -1.518547
H      2.984622   -0.733790   -2.397067
H      0.858402    0.831902    0.893903
H     -2.514319   -4.483114   -0.299178
H      4.486132   -1.957109   -0.870899
H      2.343800   -0.395527    2.420838
H     -2.525852   -2.256730    0.679649
H     -3.844086    0.982627    0.877421
H     -4.244618   -0.712734    0.491841
H     -1.835902    0.668104    1.752928
H     -1.757409   -1.016700    1.893242
H     -0.161177   -2.959742   -3.543585
H     -0.734334    2.090120   -2.288791
H      1.711771    1.407465   -2.547186
H     -5.220562    0.073019    2.512056
