69

C     -5.812321   -0.350863   -1.377162
C     -5.255745    1.602189    0.880615
C      2.687032   -1.808064   -4.002969
C      7.722445    2.054148   -0.633949
C     -4.824192    0.590746   -1.972928
C     -4.396961    2.175589   -0.201813
C      4.590314   -0.706827   -0.148663
C      3.232332    0.929349    0.832208
C     -2.668861   -1.270353    3.432095
C      5.614261    0.188184   -0.309158
C      4.252470    1.838583    0.676852
C     -2.297812   -0.609814    2.274389
C     -2.849045    0.365530   -0.702386
C     -1.844218    0.958897    0.225365
C     -0.435233   -2.037073    3.708998
C      1.935530   -1.917131   -2.726866
C      3.360111   -0.379806    0.425409
C     -1.729053   -1.991998    4.157885
C      5.451259    1.475781    0.105386
C     -0.997621   -0.661037    1.829434
C     -0.026804   -1.378855    2.539508
C      1.245540   -1.128352   -0.487475
C      2.263858   -1.396966    0.580820
C      0.371772    0.014730   -0.253233
Cl    -2.173781   -2.843472    5.637055
N     -3.909488    1.220909   -1.083997
N     -0.777766    0.052441    0.622943
O      1.201684   -2.938540   -2.577045
O      0.620240    1.078860   -0.860944
O      6.483029    2.383348   -0.055355
O      1.979268   -0.999977   -1.709848
S      1.686618   -1.581049    2.227865
C      0.722326   -0.016085   -0.273945
C     -0.710215   -0.092674   -0.025087
O      1.610653    0.208133    0.766853
O      1.114034   -0.160318   -1.459056
O     -1.634509   -0.314703   -1.032041
O     -1.150273    0.045048    1.142012
H     -6.268707   -0.906570   -2.250215
H     -5.249111   -1.071647   -0.738314
H     -6.613549    0.192061   -0.887449
H     -4.988952    2.025602    1.887774
H     -5.204084    0.503805    0.981275
H     -6.351890    1.851277    0.763739
H      3.023306   -0.788227   -4.215447
H      3.527074   -2.543301   -3.988354
H      1.962795   -2.087768   -4.820559
H      8.187904    2.984617   -1.072185
H      7.643751    1.346776   -1.480643
H      8.438493    1.623105    0.115742
H     -4.275082    0.124681   -2.838862
H     -5.448157    1.400299   -2.481600
H     -5.095156    2.863330   -0.788760
H     -3.642189    2.900389    0.189809
H      4.707375   -1.736556   -0.475462
H      2.304789    1.241791    1.285971
H     -3.680116   -1.254668    3.810449
H      6.519988   -0.191845   -0.768982
H      4.131542    2.868940    1.005259
H     -3.017291   -0.044669    1.727450
H     -3.243597   -0.624441   -0.435151
H     -2.310270    0.127215   -1.693323
H     -2.223575    1.606029    1.028628
H     -1.297619    1.729597   -0.417153
H      0.336846   -2.585076    4.235683
H      0.685475   -2.105251   -0.609652
H      2.741147   -2.378598    0.271652
H      2.628147    0.271765    0.602775
H     -2.580163    0.058833   -0.891166
