55

C     -0.430828    5.801710   -0.583100
C     -5.581069   -0.371890   -0.769545
C      5.881774   -1.980108   -1.919197
C      0.491389    4.946880    0.215682
C      3.475897    0.630477    1.318821
C      2.310201   -0.811190   -0.093373
C     -2.089923   -4.115756    0.512339
C      4.675214    0.273883    0.746118
C      3.516246   -1.185426   -0.686672
C     -1.952455   -2.944041   -0.228996
C     -3.458558   -0.363708   -1.731762
C     -2.046992   -0.891688   -1.840360
C     -0.891256   -3.124642    2.266361
C      2.262665    0.110152    0.927906
C     -1.557455   -4.217413    1.774126
C      4.711545   -0.644619   -0.270992
C     -1.285619   -1.859771    0.271944
C     -0.740515   -1.937275    1.540166
C     -0.094458    3.648209    0.646289
C      0.014930    1.181212    0.659511
C      1.004754    0.502437    1.538814
C     -0.495386    0.438462   -0.471194
Cl    -1.760651   -5.709061    2.657573
N     -4.254412   -1.002381   -0.705904
N     -1.264566   -0.771641   -0.659042
O     -1.144686    3.586467    1.348196
O     -0.208423    0.961560   -1.572842
O      5.928247   -1.027556   -0.875830
O      0.479458    2.452079    0.300272
S      0.163622   -0.767183    2.488355
H     -0.616591    6.745051   -0.037965
H      0.072992    6.073158   -1.536144
H     -1.424141    5.332663   -0.763275
H     -5.471054    0.715543   -0.681746
H     -6.036817   -0.605888   -1.736843
H     -6.183346   -0.839346    0.030920
H      5.167313   -1.619295   -2.701485
H      6.893958   -2.079995   -2.369805
H      5.518268   -2.971076   -1.587862
H      0.728671    5.474448    1.193181
H      1.434590    4.771460   -0.308581
H      3.481797    1.372100    2.134146
H      1.447188   -1.302235   -0.503228
H     -2.628370   -4.928563    0.054581
H      5.632394    0.696047    1.069247
H      3.550725   -1.912047   -1.490810
H     -2.386871   -2.947891   -1.180514
H     -3.455853    0.733640   -1.451859
H     -3.978835   -0.371771   -2.713952
H     -1.581688   -0.086348   -2.543107
H     -1.899431   -1.749698   -2.490586
H     -0.466065   -3.186019    3.254449
H     -0.890540    1.392793    1.311998
H      1.263963    1.295047    2.315548
H     -3.830944   -0.809959    0.242152
