57

C      1.534798   -4.773015   -1.408974
C     -5.282935    0.561957    1.780845
C     -5.219896   -1.807224    1.365706
C      6.494691    0.468479    3.101948
C      2.226342    0.907328    0.798423
C      3.972986   -0.313863   -0.200158
C     -2.450976    3.626299   -1.249684
C      3.050514    1.173210    1.897856
C      4.779747   -0.049179    0.883348
C     -2.268982    2.406590   -0.619042
C     -3.541694   -0.392114    0.372697
C     -2.305029    0.265718    0.912430
C     -0.410666    3.289824   -2.398853
C      0.987567   -3.450830   -1.759911
C      2.657131    0.163409   -0.273746
C     -1.503826    4.055069   -2.143734
C      4.338280    0.697396    1.952234
C     -1.166099    1.605571   -0.858776
C     -0.232198    2.065999   -1.764188
C      0.666510   -1.084139   -1.180326
C      1.779663   -0.102439   -1.414645
C     -0.309202   -0.657885   -0.182075
Cl    -1.719729    5.618953   -2.961873
N     -4.590290   -0.548653    1.287219
N     -1.245924    0.412986   -0.063786
O      0.365887   -3.315821   -2.832686
O     -0.343702   -1.416563    0.836768
O      5.172260    0.960994    3.053689
O      1.150875   -2.384743   -0.934698
S      1.256813    1.346294   -2.322126
Cl     0.683807    0.000000    0.000000
H      2.211900   -4.712034   -0.516169
H      0.738456   -5.516814   -1.198889
H      2.095514   -5.158888   -2.279463
H     -6.391731    0.457194    1.716906
H     -4.994358    0.736249    2.846027
H     -5.036465    1.463944    1.193075
H     -6.256118   -1.730211    0.963056
H     -5.261094   -2.262159    2.367691
H     -4.686297   -2.511545    0.672367
H      6.473030   -0.608594    3.362828
H      7.047113    0.634586    2.146607
H      7.066529    1.013406    3.894221
H      1.224034    1.301338    0.790864
H      4.334898   -0.905548   -1.038643
H     -3.319535    4.227553   -1.041004
H      2.681896    1.763843    2.729595
H      5.804744   -0.426797    0.929964
H     -2.993590    2.044232    0.084042
H     -3.917514    0.010707   -0.586873
H     -3.253827   -1.454502    0.065704
H     -1.901041   -0.547129    1.622383
H     -2.429831    1.063156    1.635429
H      0.331137    3.619814   -3.095191
H      0.142276   -1.160079   -2.183019
H      2.446957   -0.671330   -2.159998
H     -0.683807    0.000000    0.000000
