60

C      1.504457    4.491338    2.873991
C     -4.438929   -3.023746    0.592468
C     -2.366103   -2.488352   -0.251664
C      6.250087   -2.927584    0.611703
C     -3.418207    0.452920   -3.427825
C     -2.339422    0.468768   -4.261603
C     -3.234349    0.536018   -2.039269
C      2.518430    0.070379    1.412388
C      3.300477   -0.249770   -0.788310
C      3.489058   -0.812159    1.872226
C      4.267664   -1.128932   -0.334664
C     -3.583870   -0.863576    1.021629
C     -3.177581    0.487468    0.585166
C      0.945984    3.832436    1.664418
C      2.415790    0.358927    0.085852
C      4.369165   -1.418496    1.010048
C     -1.054993    0.565004   -3.778215
C     -1.951057    0.631912   -1.559996
C      0.403716    1.869175    0.329971
C      1.449595    1.278236   -0.511398
C     -0.836993    0.648712   -2.397001
C     -0.755958    1.008024    0.642579
Cl     0.332580    0.584603   -4.871098
N     -3.700520   -1.881258   -0.006743
N     -1.965934    0.705002   -0.106545
O      0.466988    4.601533    0.766031
O     -0.740914    0.401987    1.758493
O      5.344928   -2.309204    1.493566
O      0.942719    2.481484    1.511665
S      0.864127    0.721179   -2.084182
Cl     0.685556    0.000000    0.000000
O     -0.004233    0.378272   -0.000000
H      0.832666    4.455269    3.740842
H      1.686927    5.562147    2.640165
H      2.508060    4.054976    3.096140
H     -3.995105   -3.986379    0.345967
H     -4.519112   -2.856044    1.678790
H     -5.488722   -2.935058    0.193083
H     -2.426131   -3.182438   -1.104771
H     -2.187846   -3.124001    0.668959
H     -1.562257   -1.770407   -0.251605
H      5.741166   -3.735293    0.054521
H      6.698607   -2.225785   -0.126723
H      7.035075   -3.406321    1.243610
H     -4.430176    0.376708   -3.783136
H     -2.531085    0.401061   -5.325431
H     -4.076619    0.511098   -1.402041
H      1.880272    0.499877    2.175622
H      3.286849   -0.073741   -1.866986
H      3.554625   -1.027496    2.934416
H      4.970086   -1.613925   -1.002242
H     -4.561205   -0.848137    1.605410
H     -2.885099   -1.319265    1.783388
H     -2.969331    0.992269    1.628192
H     -4.036469    1.176450    0.320353
H      0.042672    2.782939   -0.275417
H      2.131223    2.199469   -0.784788
H     -0.685556    0.000000    0.000000
H     -0.807686   -0.190643   -0.000000
H      0.811920   -0.187628    0.000000
