61

C      0.810703   -2.273526   -2.013800
C      1.033792   -0.958000   -1.359205
C      6.327614    1.862102   -0.593487
C      6.209286    0.549483   -1.020284
C      5.662463    2.228198    0.566229
C     -6.661938    0.972034    1.168309
C     -6.101354    1.059206    2.418011
C     -0.328831    1.803639   -0.164918
C      5.457294   -0.371879   -0.322735
C      4.914255    1.307279    1.258340
C     -5.878171    0.589319    0.110565
C     -4.765127    0.758816    2.571941
C     -3.602180   -0.361401   -2.074792
C      0.508251    0.680801    0.337021
C     -0.935307    1.579249   -1.499842
C     -2.346433    0.100490   -2.735396
C      0.352738   -1.756371    0.846203
C      3.986318   -0.994846    1.583657
C      4.792675   -0.007117    0.835575
C     -4.555116    0.292989    0.269099
C     -3.582684   -0.101401   -0.595746
C     -3.963014    0.371264    1.512355
C      1.733253   -1.802485    1.372760
C     -2.372223   -0.273868    0.098267
C     -1.266057   -0.699646   -0.745353
C      0.099586   -0.692454   -0.166304
N      2.650384   -0.963192    1.083631
N     -2.672987    0.028178    1.365679
N     -1.211593    0.238136   -1.879416
O      2.112106   -2.827168    2.262443
H      0.477613   -2.188612   -3.091941
H      0.103795   -2.953640   -1.550907
H      1.830959   -2.756563   -2.103032
H      2.068142   -0.706090   -1.142232
H      0.707851   -0.177775   -2.120031
H      6.901260    2.602385   -1.108405
H      6.740214    0.279585   -1.935723
H      5.739923    3.245248    0.918117
H     -7.714200    1.203436    1.018451
H     -6.697427    1.363238    3.294491
H      0.349479    2.712732   -0.262817
H     -1.064341    2.144628    0.605339
H      5.412994   -1.375552   -0.717921
H      4.384059    1.564805    2.166985
H     -6.318530    0.516831   -0.893451
H     -4.342196    0.832982    3.561412
H     -3.655878   -1.477889   -2.209505
H     -4.518565    0.057493   -2.503999
H      1.578825    0.902271    0.072931
H      0.514999    0.694777    1.462992
H     -1.864190    2.200040   -1.628938
H     -0.247683    1.999714   -2.295648
H     -2.075850   -0.567499   -3.604502
H     -2.548044    1.091903   -3.198377
H     -0.309143   -1.605830    1.748342
H      0.136741   -2.776788    0.449024
H      4.461710   -2.000312    1.515804
H      4.004839   -0.710276    2.655836
H     -1.441338   -1.700895   -1.221775
H     -1.981627    0.003815    2.154744
H      2.957903   -2.755991    2.784619
