55

C     -6.216772    0.841497   -0.460129
C     -5.495724   -1.333296   -1.175970
C      7.694098    1.820880   -0.792200
C      0.859832    2.991739    0.963391
C      3.510146   -0.412118   -1.574210
C      3.760925    0.949064    0.341692
C     -2.329338   -2.980401    2.578664
C      4.814503   -0.135042   -1.968463
C      5.072932    1.222450   -0.063061
C     -2.391758   -2.102422    1.497734
C     -3.915259    0.215999   -0.197625
C     -2.802442   -0.669877   -0.700333
C     -0.083071   -2.426757    2.920249
C      2.972985    0.125169   -0.420000
C     -1.176439   -3.158759    3.308741
C      5.619449    0.692190   -1.212499
C     -1.303457   -1.366461    1.102153
C     -0.146878   -1.557304    1.848954
C      0.637459    0.973288   -0.136384
C      1.595121   -0.193137   -0.030636
C     -0.691026    0.474106   -0.584310
Cl    -1.110565   -4.271792    4.673892
N     -5.149387    0.016130   -0.915973
N     -1.561321   -0.533691   -0.015740
O     -1.185896    0.978693   -1.625724
O      6.928271    0.977013   -1.597792
O      0.554118    1.652922    1.064194
S      1.457735   -0.804335    1.666341
Cl     0.685295    0.000000    0.000000
H     -5.847678    1.457971    0.405109
H     -6.463653    1.584826   -1.257327
H     -7.115284    0.256228   -0.201216
H     -5.312994   -1.988356   -0.323686
H     -5.047768   -1.678128   -2.127609
H     -6.611221   -1.367011   -1.356039
H      8.753474    1.782060   -1.133390
H      7.661229    1.429242    0.242878
H      7.338827    2.880559   -0.788088
H      0.147096    3.502699    0.248361
H      1.889988    3.148609    0.647026
H      0.680288    3.456681    1.954443
H      2.870666   -1.059526   -2.159639
H      3.352675    1.365222    1.236993
H     -3.199882   -3.557520    2.880473
H      5.229105   -0.559684   -2.874228
H      5.675358    1.875815    0.554500
H     -3.317052   -2.036892    1.005662
H     -3.662664    1.310153   -0.429897
H     -4.088134    0.077310    0.860254
H     -2.690902   -0.304302   -1.782864
H     -3.145311   -1.701811   -0.710159
H      0.836345   -2.565723    3.498383
H      0.961711    1.705364   -0.898354
H      1.187539   -0.999534   -0.706528
H     -0.685295    0.000000    0.000000
