70

C     -7.505661   -1.659578    3.117297
C     -2.198069    1.615747   -6.441628
C     -1.776963    2.591772    2.601802
C      1.759996    1.688859    0.121957
C      8.133120    0.520284    2.884724
C      8.247073    0.003869    1.610783
C      6.989377    0.250097    3.609520
C      7.229082   -0.767506    1.081483
C      5.983757   -0.521348    3.065857
C     -5.851874   -0.142950    2.038962
C     -5.747460   -2.440980    1.526892
C     -0.413200    0.539194   -5.036176
C     -4.772268    0.102082    1.197040
C     -4.680387   -2.188093    0.696804
C      0.063008    0.027931   -3.854762
C      2.432563   -0.001577   -1.647585
C      1.363631   -1.030285   -1.850353
C     -2.446374    1.037255   -4.010931
C      4.994111   -1.863990    1.251355
C     -6.348851   -1.420930    2.210407
C     -1.687152    1.063754   -5.159744
C     -1.795272    1.169823    2.205838
C      6.088149   -1.039176    1.799539
C     -4.160624   -0.918748    0.505198
C     -0.713133    0.009432   -2.712849
C     -1.987830    0.525997   -2.804586
C     -1.768414   -0.493605    0.396968
C     -3.019901   -0.709453   -0.384531
C     -0.525250   -0.727487   -0.300749
C      3.365646   -0.095942    0.641051
N      2.514196    0.532138   -0.302538
N      0.017982   -0.579691   -1.611753
O     -1.847376    0.290965    3.093035
O      0.368384   -1.215923    0.481873
O      3.424444    0.379074    1.799505
O      4.134816   -1.193538    0.375027
O     -1.754689    0.845495    0.872508
S     -3.219200    0.662585   -1.541215
H     -8.479186   -1.519735    2.602925
H     -7.482340   -0.912081    3.944645
H     -7.492587   -2.650984    3.580196
H     -1.595210    1.146829   -7.265093
H     -3.228575    1.220541   -6.563066
H     -2.150731    2.722994   -6.479975
H     -0.774408    3.044400    2.465967
H     -2.485954    3.188672    1.984512
H     -2.050253    2.695900    3.678397
H      2.437633    2.531109    0.371665
H      1.092877    2.067594   -0.681769
H      1.174460    1.477715    1.048530
H      8.944587    1.130282    3.295430
H      9.155097    0.226326    1.052369
H      6.930245    0.666424    4.599262
H      7.364467   -1.149717    0.079443
H      5.104162   -0.715301    3.660291
H     -6.334745    0.654641    2.583460
H     -6.136773   -3.434464    1.662476
H      0.209682    0.545520   -5.921953
H     -4.451209    1.109005    1.114034
H     -4.217749   -3.009643    0.164268
H      1.045963   -0.351333   -3.833040
H      2.339364    0.892433   -2.325889
H      3.454015   -0.398923   -1.874275
H      1.562894   -1.745155   -0.957353
H      1.512633   -1.744043   -2.663605
H     -3.460705    1.434782   -4.036057
H      4.360809   -2.225400    2.109473
H      5.423280   -2.780863    0.773843
H     -1.830587   -1.137493    1.297452
H     -2.830547   -1.647507   -0.992587
