36

C     -3.673688   -1.252348   -0.710432
C      1.801982   -0.182912   -0.758392
C      2.389843    0.371794    1.439827
C      3.124776   -0.093624   -1.129381
C      3.714948    0.472278    1.118884
C     -0.444387   -1.457732    0.836480
C     -1.919212   -1.636464    0.835357
C     -1.827397    0.254785   -0.656799
C     -0.161918    2.104975   -0.299754
C      1.400589    0.048032    0.538067
C     -0.911425    0.949396    0.322304
C      4.076943    0.233453   -0.190571
C      0.005096   -0.030860    0.996504
F      5.391818    0.319085   -0.573555
N     -2.665926   -0.640542    0.157752
O      0.640548    2.639048    0.736143
Cl     0.691532    0.000000    0.000000
H     -4.342377   -1.837452   -0.070029
H     -4.177779   -0.442063   -1.251176
H     -3.162371   -1.976556   -1.400335
H      1.068155   -0.439903   -1.502337
H      2.126130    0.566990    2.491005
H      3.420946   -0.283313   -2.174506
H      4.494874    0.727359    1.829086
H      0.017579   -1.861991   -0.099067
H     -0.015317   -2.058909    1.664991
H     -2.315294   -1.728479    1.888551
H     -2.142310   -2.630029    0.373081
H     -2.532521    0.978300   -1.107233
H     -1.324929   -0.375238   -1.381527
H      0.412801    1.845005   -1.184902
H     -0.846734    2.932812   -0.578618
H     -1.598365    1.411268    1.075364
H     -0.019848    0.183643    2.084273
H     -0.005231    2.890192    1.460223
H     -0.691532    0.000000    0.000000
