54

C      0.301754   -3.660218    1.654186
C      5.218951    1.337493   -0.566833
C     -0.616780   -2.499332    1.717456
C      4.564327    0.083558   -1.034681
C      0.337481    4.838377   -0.862978
C      1.565766    4.261593   -0.616814
C     -2.713984   -3.058240   -0.212350
C     -0.825053    4.111677   -0.716755
C      1.673979    2.939358   -0.216386
C     -3.170014    1.810506   -0.165036
C     -1.335429   -2.667087   -0.612186
C     -3.563224   -1.844414   -0.172314
C     -3.494963    0.418604   -0.632959
C      0.607364   -1.384613   -0.043693
C     -0.726329    2.815219   -0.324654
C     -1.661514    1.842285   -0.085401
C      0.496900    2.230922   -0.076979
C      1.161981   -0.162808    0.672104
C     -0.987504    0.717177    0.293416
C     -1.662635   -0.533221    0.656909
C      2.594942   -0.026717    0.471709
C     -0.787717   -1.720561    0.436131
N     -2.981829   -0.620764    0.172312
N      0.326496    0.938220    0.301918
O      3.355245    0.109550    1.462685
O      3.205706   -0.037403   -0.776056
H      0.129516   -4.243964    2.611370
H      1.381314   -3.416750    1.694198
H      0.143430   -4.383897    0.856660
H      5.100155    2.205039   -1.215214
H      4.820544    1.625302    0.450317
H      6.316142    1.154132   -0.370878
H     -1.590193   -2.831950    2.141563
H     -0.218367   -1.800161    2.521007
H      5.172741   -0.772251   -0.676850
H      4.676159    0.058600   -2.158749
H      0.262365    5.881948   -1.178483
H      2.470342    4.853181   -0.738286
H     -2.797394   -3.594289    0.751511
H     -3.138611   -3.767457   -0.966108
H     -1.812107    4.554646   -0.908303
H      2.626500    2.476589   -0.013322
H     -3.515731    2.517583   -0.923236
H     -3.567615    1.972997    0.839235
H     -1.441093   -2.057182   -1.559372
H     -0.628582   -3.477720   -0.764508
H     -4.142275   -1.792012   -1.148077
H     -4.394875   -2.037736    0.574920
H     -3.180687    0.361768   -1.715839
H     -4.608507    0.337941   -0.650620
H      0.561766   -1.089149   -1.128649
H      1.319657   -2.191742    0.080669
H      0.961317   -0.333498    1.771184
H     -1.789830   -0.449131    1.792037
