52

C     -3.350955    1.974905    1.164945
C     -2.398420    0.844559    1.282907
C      5.187641    0.321658   -0.677465
C      4.806420    1.662604   -0.613841
C     -2.641815   -1.217790   -1.574628
C      4.237070   -0.688298   -0.522558
C      3.492393    2.029733   -0.398245
C      1.475717   -2.515594   -0.072093
C     -2.618482    0.191033   -1.114732
C     -2.132736   -2.200353   -0.511416
C      0.048477   -2.722472    0.374408
C     -1.048036    1.885842   -0.402067
C      2.937829   -0.335411   -0.309339
C      1.762671   -1.076974   -0.114688
C      2.581608    1.000059   -0.249926
C      0.308604    2.130542    0.117244
C      0.780206   -0.153559    0.048919
C     -0.644139   -0.491771    0.303685
C     -1.633776    0.540392   -0.027110
N     -0.784710   -1.784127   -0.328719
N      1.258800    1.082645   -0.031015
O      0.707333    3.182505    0.680296
O     -0.393549    1.563696    0.119749
O     -1.185442   -1.104525    0.294868
O      1.243010   -0.520628   -0.778726
O      0.708960   -0.127333    1.782768
P      0.137386   -0.033457    0.374005
H     -2.858022    2.884375    1.571002
H     -3.658984    2.236582    0.128099
H     -4.262696    1.842124    1.822740
H     -2.990253   -0.064776    1.589665
H     -1.698513    1.032137    2.105525
H      6.223382    0.035328   -0.847435
H      5.602513    2.394672   -0.743619
H     -3.629957   -1.562891   -1.872184
H     -1.928117   -1.354081   -2.439162
H      4.506391   -1.733881   -0.567592
H      3.207169    3.074594   -0.350598
H      2.201289   -3.056447    0.565506
H      1.562550   -2.913066   -1.117994
H     -2.472955    0.823637   -2.039441
H     -3.681293    0.435906   -0.812249
H     -2.131933   -3.204895   -0.959023
H     -2.711555   -2.139122    0.416879
H      0.010737   -2.514658    1.470208
H     -0.234836   -3.774875    0.144779
H     -1.708595    2.726703   -0.101598
H     -1.029910    1.930740   -1.532677
H     -0.648115   -0.758231    1.412271
H     -1.125979    1.547358   -0.550461
H     -1.544052   -1.083732   -0.617104
H      2.159665   -0.241379   -0.625099
