53

C     -5.461931   -0.288700   -2.542610
C     -5.197137    0.757715   -0.419868
C      7.001384    0.269774   -2.627481
C     -2.118790    3.082829    1.669547
C     -1.178021    3.571799    2.541779
C     -2.977524   -1.035773    0.135701
C     -1.869485    1.864255    1.058418
C     -0.025721    2.895795    2.813654
C      2.722024    0.616022   -0.333215
C      4.470269   -0.562600    0.681382
C      3.549136    0.894936   -1.427754
C      5.298141   -0.296931   -0.388448
C     -4.025250   -1.273071   -0.909902
C     -1.781525   -0.312195   -0.398059
C      3.161804   -0.118759    0.746814
C      4.848327    0.438790   -1.463594
C     -0.711181    1.118620    1.290300
C      0.198826    1.664950    2.180009
C      1.258835   -1.456257    1.670255
C      2.334148   -0.439340    1.911553
C      0.301622   -1.097749    0.643268
N     -4.519606   -0.040974   -1.442719
N     -0.724512   -0.079594    0.530172
O      1.816833   -2.682988    1.417219
O      0.341310   -1.806925   -0.395975
O      5.680228    0.713133   -2.552649
S      1.743339    1.030881    2.720903
H     -4.939212   -0.022228   -3.481744
H     -6.350888    0.368794   -2.462557
H     -5.784735   -1.340999   -2.569651
H     -5.181848    0.308798    0.573971
H     -6.265640    0.852246   -0.706878
H     -4.774092    1.778422   -0.487084
H      7.486148    0.743049   -3.504245
H      7.088611   -0.844176   -2.688800
H      7.528543    0.554449   -1.671208
H     -3.040067    3.599191    1.437285
H     -1.384822    4.539233    3.021664
H     -2.615764   -2.066418    0.442887
H     -3.451237   -0.638228    1.036230
H     -2.567687    1.443943    0.376101
H      0.707365    3.298597    3.506720
H      1.703492    0.973254   -0.300378
H      4.880172   -1.149583    1.503836
H      3.154903    1.476829   -2.251698
H      6.326736   -0.645180   -0.440940
H     -4.830186   -1.954594   -0.563684
H     -3.513802   -1.805750   -1.755341
H     -1.973083    0.462071   -1.161593
H     -1.351394   -1.112415   -1.113630
H      0.698597   -1.547709    2.642666
H      3.022414   -0.952884    2.665234
H      1.291933   -3.271655    0.844138
