53

C     -6.707962    0.353998   -0.855384
C     -5.678182    0.328404    1.274230
C      8.485341   -0.779846   -0.339651
C     -1.808494    2.485820    2.318755
C     -0.622071    2.566159    3.015125
C     -3.467850   -1.174954    0.111333
C     -1.935326    1.592235    1.274193
C      0.431857    1.746452    2.657514
C      3.907766   -0.828386   -1.953690
C      4.361715   -0.057445    0.245524
C      5.250376   -1.052636   -2.112111
C      5.723922   -0.288427    0.074367
C     -4.865357   -1.112095   -0.449366
C     -2.629944   -0.143380   -0.594192
C      3.448126   -0.319028   -0.749092
C      6.193571   -0.793779   -1.117403
C     -0.900254    0.761579    0.894498
C      0.296281    0.862247    1.618630
C      1.096634   -0.900487   -1.231703
C      2.038378   -0.046175   -0.483713
C     -0.300120   -0.889977   -0.909981
N     -5.403546    0.225383   -0.166124
N     -1.258502   -0.086824   -0.203303
O      1.554753   -2.239525   -1.121580
O     -0.899547   -1.925333   -1.407566
O      7.538044   -1.046918   -1.354924
S      1.765818   -0.100612    1.309506
H     -6.754434   -0.428551   -1.640599
H     -6.671746    1.339814   -1.368227
H     -7.541831    0.322573   -0.131556
H     -5.752714   -0.665511    1.720356
H     -4.880430    0.934047    1.721034
H     -6.627530    0.914453    1.399996
H      9.522690   -0.972720   -0.690338
H      8.394926    0.272839   -0.005517
H      8.275631   -1.414947    0.561288
H     -2.608211    3.142815    2.628359
H     -0.461351    3.245537    3.840804
H     -3.028562   -2.168065   -0.082783
H     -3.516856   -1.066323    1.199105
H     -2.850645    1.532471    0.738229
H      1.369389    1.782973    3.179004
H      3.162709   -1.022034   -2.712143
H      4.084829    0.344799    1.226290
H      5.614796   -1.451057   -3.051775
H      6.428619   -0.076728    0.862343
H     -4.894783   -1.317601   -1.536950
H     -5.498465   -1.903251    0.018601
H     -2.594634   -0.651377   -1.640656
H     -3.130719    0.767765   -0.910899
H      1.203691   -0.625953   -2.323696
H      1.843163    1.027342   -0.775747
H      1.297039   -2.686301   -1.968417
