53

C      8.891368   -0.617773   -0.063633
C     -6.385452   -2.148018   -0.664728
C     -5.976764   -0.051694   -1.763507
C      7.411236   -0.649942    0.267319
C     -3.537712    2.831768    1.760484
C     -2.514658    3.310132    2.546172
C     -3.317477    1.774765    0.865500
C     -1.293016    2.701256    2.401774
C      3.292689   -0.339934    0.670807
C      3.181308    1.111638   -1.186960
C      4.682286   -0.437353    0.525372
C      4.568372    1.029992   -1.352323
C     -4.260007   -1.057120   -0.405525
C     -3.281714   -0.083733   -1.024327
C      2.540336    0.431755   -0.181359
C      5.311168    0.244070   -0.479858
C     -2.082721    1.177014    0.735713
C     -1.069947    1.662021    1.523997
C      0.405275   -0.822222   -0.096225
C      1.096576    0.519899   -0.013315
C     -0.992322   -0.758873   -0.490114
N     -5.431731   -1.241287   -1.202101
N     -2.105035    0.125504   -0.238433
O      0.580979   -1.502147    1.122624
O     -1.351752   -1.722240   -1.255210
O      6.681629    0.155801   -0.633404
S      0.636640    1.163471    1.643341
H      9.076077    0.303803   -0.656651
H      9.085680   -1.479744   -0.747863
H      9.505586   -0.656268    0.856873
H     -6.970853   -2.612385   -1.495775
H     -7.105295   -1.566879   -0.040606
H     -5.897979   -2.929849   -0.080111
H     -6.982413   -0.290098   -2.174759
H     -6.121793    0.762606   -1.025972
H     -5.354192    0.254957   -2.625552
H      7.259796   -0.275426    1.310466
H      7.085961   -1.704013    0.276604
H     -4.531877    3.280376    1.834965
H     -2.715931    4.126318    3.226690
H     -4.113891    1.411605    0.262894
H     -0.481052    3.088799    3.032610
H      2.859133   -0.906389    1.489008
H      2.653836    1.731298   -1.886238
H      5.251574   -1.051035    1.208722
H      5.082859    1.560430   -2.139711
H     -3.785619   -2.091375   -0.368249
H     -4.489664   -0.867531    0.657883
H     -3.713855    0.778538   -1.528910
H     -2.926359   -0.676621   -1.940941
H      0.972065   -1.409802   -0.847331
H      0.608564    1.174123   -0.764518
H      0.070087   -2.330682    1.154388
