67

C      8.448157    1.877670   -0.208905
C     -3.848140   -0.328016   -0.286251
C     -5.747958   -0.906760   -1.671661
C      7.265111    0.978012   -0.584608
C     -2.342427   -5.183666    2.039808
C     -1.490181   -4.856895    3.069933
C     -2.340570   -4.384849    0.915414
C     -0.669902   -3.748508    2.941031
C      2.800973    0.280387    1.255999
C      3.435967   -0.986891   -0.592444
C     -1.572265    5.121523   -1.077573
C      4.052398    0.906718    1.238906
C      4.672096   -0.392012   -0.636041
C     -1.072805    3.863198   -1.333160
C     -4.161003   -2.586812   -1.143095
C     -2.796723   -3.125240   -1.349217
C     -1.229567    4.730572    1.246588
C      2.473392   -0.685228    0.330688
C     -1.653006    5.566417    0.234782
C      4.996090    0.569950    0.288777
C     -0.642241    3.011557   -0.313470
C     -0.725894    3.455772    0.966353
C     -1.538105   -3.275131    0.752667
C     -0.677230   -2.955231    1.809539
C      0.147205   -0.709914   -0.560541
C      1.182925   -1.337245    0.328279
C     -0.960734   -1.526893   -0.977103
C     -0.137601    1.720333   -0.746657
Cl    -0.206041    2.421477    2.259680
N     -4.374850   -1.187244   -1.286433
N     -1.742701   -2.633580   -0.519601
N     -2.167399    6.862644    0.481519
O     -1.399986   -1.154483   -2.131972
O      0.562158    1.645093   -1.790443
O     -2.283188    7.396220    1.737228
O     -2.546093    7.590100   -0.474194
O      6.224999    1.213094    0.310820
O     -0.371030    0.519318   -0.080718
S      0.472192   -1.601265    1.949519
H      8.578366    2.723782   -0.890970
H      8.303081    2.318992    0.804449
H      9.396961    1.274408   -0.144767
H     -3.279633   -0.812750    0.517400
H     -3.250084    0.486899   -0.798450
H     -4.723548    0.197651    0.219999
H     -6.480923   -1.145855   -0.883710
H     -5.974531   -1.570186   -2.536521
H     -5.843364    0.137786   -2.032558
H      7.598118   -0.072872   -0.631763
H      6.994513    1.292360   -1.619521
H     -3.007606   -6.044536    2.084236
H     -1.491901   -5.482144    3.950177
H     -3.009216   -4.655811    0.147690
H     -0.008302   -3.491044    3.742523
H      2.127342    0.596688    2.033423
H      3.223113   -1.744964   -1.344705
H     -1.913477    5.792335   -1.864012
H      4.277347    1.668240    1.991192
H      5.376370   -0.685917   -1.396707
H     -1.026730    3.552780   -2.371349
H     -4.517365   -2.819358   -0.083113
H     -4.907348   -3.065345   -1.859906
H     -2.524336   -2.694151   -2.398645
H     -2.734666   -4.201288   -1.636054
H     -1.305769    5.108317    2.249569
H      0.743591   -0.466399   -1.505243
H      1.343976   -2.361804   -0.136105
