64

C     -5.404482   -1.958513   -2.131392
C     -3.425520   -3.141915   -2.803665
C      3.087126    5.568898   -1.563621
C     -5.128841    1.338078    1.524569
C     -4.669386    2.144868    2.532489
C     -4.251044    0.435969    0.957206
C     -3.379284    2.039152    2.943940
C      3.849716   -1.331116   -0.710378
C      4.565851   -2.982798    0.844255
C      1.945641    2.552812    1.145392
C     -0.015673    2.122883   -0.072032
C      4.991911   -1.513692   -1.450323
C      5.720798   -3.191630    0.127892
C      2.304278    3.535605    0.250519
C      0.348432    3.120967   -0.980840
C     -3.218672   -1.000722   -1.705593
C     -3.083570   -1.546214   -0.328762
C      0.765465    1.807684    1.014127
C      3.610138   -2.061276    0.453865
C      5.910377   -2.437266   -1.025302
C      1.509394    3.837988   -0.831802
C     -2.931522    0.290132    1.338893
C     -2.514114    1.121161    2.355483
C      0.255796   -0.619851    1.422836
C      0.373798    0.756698    1.956414
C     -0.878356   -0.969929    0.594686
C      2.391272   -1.855278    1.226005
N     -4.030220   -1.882063   -2.493166
N     -2.281156   -0.717999    0.559298
N      7.075333   -2.612436   -1.795308
O     -0.555579   -1.719932   -0.396217
O      2.131061   -2.478382    2.272028
O      7.332463   -1.905874   -2.943051
O      7.928600   -3.441779   -1.439737
O      1.874273    4.841854   -1.746881
O      1.481332   -0.929355    0.782199
S     -0.929174    1.208836    3.108579
H     -5.879107   -2.720883   -2.789103
H     -5.896930   -0.971269   -2.248679
H     -5.542742   -2.331993   -1.097993
H     -2.392515   -3.208568   -2.382546
H     -4.065506   -3.942387   -2.360527
H     -3.384456   -3.315655   -3.906291
H      3.921645    4.822961   -1.659590
H      3.169522    5.982712   -0.536205
H      3.240880    6.314898   -2.347857
H     -6.156528    1.409090    1.183279
H     -5.333955    2.882513    3.017266
H     -4.620041   -0.183104    0.181530
H     -3.007384    2.659886    3.727247
H      3.073379   -0.614124   -0.985448
H      4.393421   -3.558151    1.747589
H      2.576319    2.317066    1.999463
H     -0.942129    1.587747   -0.241747
H      5.172094   -0.952186   -2.341897
H      6.487254   -3.908000    0.411235
H      3.219781    4.112003    0.353904
H     -0.295987    3.349356   -1.837620
H     -3.451225    0.056629   -1.821636
H     -2.189330   -1.073693   -2.198405
H     -3.951314   -2.027915    0.125507
H     -2.437047   -2.478666   -0.481301
H      0.246404   -1.299604    2.333180
H      1.289032    0.665775    2.657489
