51

C      5.494556    2.287860    0.511868
C      4.426702    2.114376   -0.353691
C      6.276013    1.221000    0.889542
C     -4.839485    0.962212    0.493562
C     -4.731563    2.057267   -0.517549
C      4.118996    0.877292   -0.857406
C      5.937974   -0.006205    0.364414
C     -3.553536    0.837341    1.275966
C     -3.353369    2.131121   -1.163957
C      0.743439   -0.870769    0.863571
C     -0.302697   -1.348764   -1.178582
C      1.977841   -1.089537    0.291751
C      0.932528   -1.571630   -1.766619
C     -2.676050   -1.928271    0.599258
C      4.580969   -1.569274   -1.022597
C      4.877813   -0.203679   -0.500314
C     -0.436978   -0.994155    0.143236
C      2.104365   -1.443780   -1.031952
C     -2.357371    0.565873    0.384072
C     -1.762748   -0.768111    0.749945
C     -2.666002    0.757942   -1.059180
N     -2.040901   -3.073300    1.262170
O     -3.584322   -0.137350   -1.575265
O      3.339069   -1.669779   -1.635670
H      5.723643    3.285857    0.903382
H      3.841751    3.008233   -0.615982
H      7.123757    1.345110    1.573766
H     -5.196000    0.002636    0.107566
H     -5.611188    1.295774    1.245747
H     -4.903124    3.032581   -0.023121
H     -5.532770    1.928214   -1.282674
H      3.297573    0.748002   -1.522359
H      6.557765   -0.847805    0.664933
H     -3.446990    1.816276    1.830792
H     -3.608599    0.069760    2.058400
H     -2.721556    2.906345   -0.695812
H     -3.526919    2.363019   -2.233895
H      0.628578   -0.588890    1.912937
H     -1.203837   -1.460965   -1.779458
H      2.843938   -0.977061    0.923649
H      0.986575   -1.849537   -2.813931
H     -2.839063   -2.248759   -0.448115
H     -3.616056   -1.751571    1.145598
H      5.352485   -1.926428   -1.721547
H      4.568071   -2.236082   -0.123803
H     -1.590067    1.330389    0.660519
H     -1.565976   -0.674873    1.866883
H     -1.755841    0.858009   -1.667894
H     -1.514567   -2.762795    2.108745
H     -1.369852   -3.470387    0.582811
H     -3.426974   -0.332730   -2.542758
