64

C      5.685657   -0.610219    2.222177
C      6.535140   -1.486135    0.121035
C     -5.445389    5.861756    1.329295
C      3.274562    1.081067   -3.649383
C      2.109134    1.235386   -4.361219
C      3.213033    0.869883   -2.277492
C      0.897276    1.178166   -3.691679
C     -2.014264    3.620763    0.335543
C     -3.164904    1.621732    0.739790
C     -2.261257   -4.957802   -0.459781
C     -3.115543    4.361240    0.656624
C     -4.292697    2.372455    1.067650
C     -1.589030   -3.775269   -0.123463
C      4.217062   -0.774903    0.299591
C      3.567570    0.587124    0.338314
C     -3.991597   -4.477362    1.062673
C     -1.994608    2.214354    0.364060
C     -3.456120   -5.320958    0.120690
C     -4.281542    3.750057    1.029521
C     -2.130858   -2.935955    0.820786
C     -3.337475   -3.326734    1.391928
C      2.026095    0.810095   -1.600289
C      0.851885    0.969609   -2.335273
C     -0.280785    0.400724    0.777778
C     -0.771556    1.542113   -0.023746
C      1.202127    0.305215    0.745328
C     -1.525813   -1.667424    1.221322
Cl    -4.058149   -2.286662    2.599711
N      5.532455   -0.793057    0.831822
N      2.229069    0.572010   -0.199734
N     -4.146215   -6.516547   -0.225681
O      1.693962   -0.125320    1.845314
O     -1.657954   -1.351558    2.432201
O     -3.670382   -7.404411   -1.154973
O     -5.231802   -6.775970    0.327959
O     -5.403904    4.469524    1.355222
O     -0.854024   -0.850767    0.362623
S     -0.835489    0.962299   -1.760701
H      6.412476   -1.398045    2.579052
H      6.107393    0.338980    2.561894
H      4.731061   -0.897066    2.716378
H      6.886343   -0.931557   -0.785435
H      6.158104   -2.493431   -0.141731
H      7.421886   -1.628383    0.764516
H     -5.050449    6.256940    0.353727
H     -6.539471    6.148417    1.290776
H     -4.910190    6.375075    2.134412
H      4.261775    1.117076   -4.124760
H      2.129950    1.402465   -5.447621
H      4.120101    0.749634   -1.702424
H     -0.040854    1.296945   -4.246026
H     -1.111234    4.130189    0.041814
H     -3.205308    0.541297    0.773933
H     -1.854929   -5.645488   -1.207492
H     -3.128984    5.447807    0.631390
H     -5.202690    1.875292    1.363107
H     -0.661760   -3.533991   -0.599303
H      3.625095   -1.478016    0.982431
H      4.147625   -1.301158   -0.670733
H      4.195624    1.435597    0.091077
H      3.427189    0.755889    1.457965
H     -4.943199   -4.758769    1.529669
H     -0.567242    0.536386    1.841202
H      0.068013    2.309392   -0.033343
