51

C      7.927738   -1.390063   -0.503346
C      6.979803   -2.121697   -1.182981
C      7.568381   -0.186940    0.098276
C     -4.127622   -1.821673   -0.742194
C     -5.271683   -1.410852    0.146122
C      5.681381   -1.651986   -1.259640
C      6.253101    0.275941    0.013116
C     -2.859221   -1.089334   -0.490625
C     -5.220421    0.053834    0.525012
C     -0.251039   -0.254296    1.565790
C     -0.073691    0.997523   -0.407274
C      1.077339   -0.596739    1.471883
C      1.249783    0.664925   -0.513803
C     -2.362320    2.425071    0.890399
C      3.937134    0.011558   -0.763316
C      5.325719   -0.472612   -0.670810
C     -0.864582    0.551689    0.630334
C      1.854771   -0.141497    0.426252
C     -3.015027    0.413700   -0.481490
C     -2.309692    0.932634    0.719773
C     -4.456386    0.760124   -0.582597
N     -1.630107    2.721191    2.133842
O     -4.741764    2.094859   -0.680572
O      3.211903   -0.496560    0.338175
H      8.961619   -1.752748   -0.435732
H      7.288606   -3.047857   -1.637451
H      8.305085    0.380702    0.625912
H     -4.382656   -1.732198   -1.822355
H     -3.944422   -2.900302   -0.555104
H     -6.202062   -1.573219   -0.436345
H     -5.355362   -2.063269    1.040203
H      4.956815   -2.261584   -1.808357
H      6.026879    1.211188    0.495075
H     -2.136266   -1.353671   -1.272369
H     -2.432919   -1.471638    0.474344
H     -6.261244    0.432299    0.573792
H     -4.711180    0.140864    1.509182
H     -0.866764   -0.619571    2.401079
H     -0.559285    1.638898   -1.152914
H      1.537144   -1.232828    2.221386
H      1.855603    1.019829   -1.328861
H     -3.402862    2.789725    1.098468
H     -1.863826    2.969575    0.083114
H      3.873680    1.123753   -0.741470
H      3.499838   -0.396981   -1.715009
H     -2.504791    0.865744   -1.382253
H     -2.701235    0.448796    1.631318
H     -4.831977    0.283620   -1.536260
H     -0.594935    2.632547    1.977565
H     -1.863380    1.936183    2.804580
H     -5.573602    2.263338   -0.154652
