55

C     -5.953692    0.632193   -1.317626
C     -4.761258   -2.566550    0.104164
C      8.357401   -1.110836   -0.222291
C     -5.917953   -0.872138   -1.077396
C     -2.068852    3.296109    1.414024
C     -1.013007    4.060077    0.988546
C     -2.071977    1.916891    1.154004
C      0.006037    3.439191    0.319459
C      3.863101    0.450009    0.724243
C      4.269289   -0.851028   -1.183229
C      5.206766    0.379693    1.062900
C      5.608080   -0.930236   -0.859752
C     -3.561784   -0.617318   -0.587094
C     -2.629433   -0.630244    0.606297
C      3.362511   -0.162906   -0.405695
C      6.080990   -0.311926    0.269448
C     -1.051972    1.290179    0.483861
C      0.011978    2.065500    0.055063
C      1.194699   -0.981261    0.181895
C      1.915322   -0.109725   -0.795698
C     -0.280614   -1.043140   -0.034923
N     -4.844411   -1.164808   -0.181418
N     -1.316726   -0.125567    0.359096
O      1.509832   -0.570294    1.467459
O     -0.747365   -2.042684   -0.658434
O      7.442966   -0.409503    0.570871
S      1.439143    1.590358   -0.838610
Cl     0.691349    0.000000    0.000000
H     -7.006247    0.970703   -1.517126
H     -5.558026    1.145497   -0.420234
H     -5.294389    0.857712   -2.173841
H     -4.323341   -2.806114    1.099628
H     -4.250400   -3.115160   -0.716179
H     -5.806852   -2.973367    0.141256
H      8.563617   -0.558207   -1.163859
H      9.292664   -1.221704    0.401393
H      8.054845   -2.145156   -0.459523
H     -6.895049   -1.119133   -0.595362
H     -5.889405   -1.430220   -2.032105
H     -2.905464    3.723744    1.947692
H     -1.007556    5.141737    1.192262
H     -2.896789    1.343898    1.482656
H      0.835531    4.019416   -0.019235
H      3.209211    0.998238    1.359254
H      3.939148   -1.350899   -2.079124
H      5.583320    0.865311    1.951863
H      6.290387   -1.473916   -1.485069
H     -3.193272   -1.282736   -1.400694
H     -3.663026    0.383133   -1.043860
H     -2.459735   -1.782346    0.692480
H     -3.082588   -0.474875    1.577837
H      1.595169   -2.013109    0.060480
H      1.863476   -0.552853   -1.833240
H      0.955702    0.230369    1.646065
H     -0.691349    0.000000    0.000000
