64

C     -4.536414   -3.584355    1.459581
C     -6.114837   -2.277510    0.307767
C      4.459993    5.536496    2.738639
C     -4.696673    1.606326   -2.441009
C     -3.926263    2.440477   -3.210264
C     -4.166281    0.780265   -1.469737
C     -2.556732    2.408350   -2.951243
C      1.314782    3.106402    1.502613
C      2.375537    2.679883   -0.536957
C      4.423276   -4.007795    0.394568
C      2.370066    3.915623    1.910520
C      3.443135    3.486366   -0.150506
C      3.492572   -3.088438    0.789895
C     -3.816352   -2.231395   -0.396637
C     -3.551288   -0.976863    0.372209
C      4.809590   -2.688296   -1.523321
C      1.293366    2.475441    0.279708
C      5.099338   -3.818930   -0.776808
C      3.443446    4.111874    1.083439
C      3.174954   -1.933671    0.058002
C      3.857824   -1.752635   -1.115096
C     -2.808637    0.758242   -1.222330
C     -2.022553    1.594984   -1.990595
C      0.121421    0.320721    0.375497
C      0.156213    1.682356   -0.124326
C     -1.166719   -0.392470    0.293091
C      2.155339   -1.047110    0.599933
Cl     3.541149   -0.373043   -2.111558
N     -4.873042   -2.999028    0.177252
N     -2.478682   -0.183639   -0.177926
N      6.082948   -4.763473   -1.227413
O     -1.040483   -1.565686    0.814821
O      2.144855   -0.727722    1.829579
O      6.771803   -4.597897   -2.385526
O      6.312658   -5.764576   -0.537234
O      4.529233    4.929845    1.466221
O      1.145780   -0.504088   -0.146427
S     -0.246605    1.792798   -1.901796
H     -4.561756   -2.885044    2.292626
H     -5.319610   -4.368660    1.633073
H     -3.565396   -4.107158    1.354828
H     -6.033409   -1.699741    1.266039
H     -6.910785   -3.048036    0.501773
H     -6.358927   -1.623734   -0.522404
H      5.434311    6.005933    3.004449
H      3.660493    6.324268    2.772974
H      4.268512    4.793724    3.537143
H     -5.762165    1.630477   -2.636281
H     -4.365703    3.078894   -3.966632
H     -4.817491    0.170984   -0.932327
H     -1.952799    3.071701   -3.563719
H      0.497859    2.989348    2.197736
H      2.404465    2.227202   -1.506605
H      4.653357   -4.897987    0.987444
H      2.372767    4.406360    2.872030
H      4.305103    3.660802   -0.784602
H      2.967839   -3.244967    1.715857
H     -2.900115   -2.896024   -0.380033
H     -4.002368   -2.069899   -1.476997
H     -4.391404   -0.458597    0.819709
H     -3.095247   -1.421537    1.338908
H      5.361000   -2.558736   -2.459371
H      0.349147    0.371718    1.492265
H     -0.755395    2.200879    0.385491
