43

C      4.265511   -1.654230   -0.854230
C     -2.050799   -0.881894    1.796476
C      1.659828    1.084415    1.062760
C     -0.418001   -1.135248   -1.858461
C      0.308992    0.867692    1.234821
C     -1.626765   -1.806279   -1.192126
C     -3.988148    1.209750    0.159677
C      4.385230    2.030700   -0.027515
C     -2.605937    1.252632    0.743861
C      5.713784    2.173830   -0.206303
C      1.624987   -0.121211   -0.959595
C      4.587821   -0.222255   -0.578343
C      2.327615    0.594877   -0.029998
C      0.256251   -0.341821   -0.786924
C      3.799528    0.838522   -0.208563
C     -0.416229    0.148824    0.309627
C     -2.479248   -0.707594   -0.673058
C     -4.573512   -0.154386    0.149720
C     -1.850148   -0.045206    0.553188
N     -3.805227   -1.122948   -0.273069
O     -5.871184   -0.430570    0.561762
S      6.223619    0.510032   -0.670488
H      5.151863   -2.271516   -0.574707
H      3.380621   -1.961106   -0.266045
H      4.146769   -1.798830   -1.948103
H     -2.083988   -0.159053    2.657652
H     -2.994644   -1.427865    1.808862
H     -1.225796   -1.591317    1.974032
H      2.185425    1.653172    1.813973
H      0.243895   -1.850869   -2.339541
H     -0.858970   -0.381494   -2.555974
H     -0.165905    1.289032    2.135564
H     -2.169863   -2.380053   -1.942278
H     -1.184939   -2.441374   -0.380276
H     -4.684247    1.839727    0.780366
H     -4.035901    1.640414   -0.866911
H      3.790002    2.946232    0.278078
H     -2.043130    2.040986    0.162941
H     -2.595613    1.588245    1.799475
H      6.375827    3.006333   -0.120213
H      2.132656   -0.515113   -1.829180
H     -2.600150    0.063532   -1.460076
H     -6.231881   -1.376714    0.431996
