30

C     -3.854511    1.389621   -0.070721
C      4.124909    1.711008   -0.175661
C      0.699468   -0.545107   -1.243553
C     -1.587568    0.544388   -1.009944
C     -2.534137   -0.711912    0.677169
C     -0.642997   -0.277175   -0.651781
C      1.632519   -1.148957   -0.255137
C      2.556880   -0.071231    0.246690
C     -0.167517   -1.722894    1.238353
N      1.043680   -1.783382    0.872156
N     -2.714716    0.465436   -0.141239
N     -1.100417   -0.964131    0.501858
O      2.707259    0.144792    1.456556
O     -0.578704   -2.399979    2.360401
O      3.259734    0.701506   -0.667203
I      0.860681    0.000000    0.000000
H     -4.755986    0.913378   -0.533236
H     -3.621268    2.349588   -0.550928
H     -4.086741    1.577948    0.991563
H      4.597821    2.229223   -1.036397
H      3.500582    2.468351    0.349904
H      4.881579    1.249044    0.494242
H      0.587423   -1.181084   -2.146148
H      1.101042    0.438500   -1.600749
H     -1.587074    1.240753   -1.862307
H     -2.752783   -0.503848    1.759856
H     -3.114538   -1.585298    0.318960
H      2.299967   -1.882533   -0.762360
H      0.106092   -2.646007    3.079402
H     -0.860681    0.000000    0.000000
