36

C     -0.151028   -0.033425    1.398263
C      4.683827    0.353253   -0.055438
C      3.786214    1.125858    0.640167
C      4.299386   -0.558916   -1.016621
C     -3.703489   -0.852084   -0.535336
C     -3.996719    0.586594   -0.254279
C      2.432160    1.003485    0.385114
C      2.949134   -0.679830   -1.269694
C     -2.174712   -0.981847   -0.602903
C     -2.670312    1.050417    0.358032
C     -0.368709    0.507472    0.029272
C      2.019872    0.100202   -0.569701
C      0.616383   -0.115720   -0.921960
N     -1.715678    0.346017   -0.454372
O      0.352191   -1.473001   -1.040059
Cl     0.683479    0.000000    0.000000
H      0.816022   -0.573912    1.425089
H     -0.207288    0.798685    2.132746
H     -0.910583   -0.774262    1.717980
H      5.751424    0.463876    0.159928
H      4.066205    1.845813    1.396435
H      5.056482   -1.149897   -1.542397
H     -4.146476   -1.126254   -1.526028
H     -4.131033   -1.490060    0.258571
H     -4.184873    1.135706   -1.210967
H     -4.832985    0.740046    0.442796
H      1.692436    1.591540    0.906577
H      2.633675   -1.390647   -2.019860
H     -1.884182   -1.694732    0.169480
H     -1.913965   -1.454003   -1.594499
H     -2.608970    0.641374    1.384462
H     -2.550742    2.134487    0.321483
H     -0.161663    1.597443    0.041983
H      0.402816    0.341581   -1.932423
H      0.755181   -2.015260   -0.319081
H     -0.683479    0.000000    0.000000
