60

C     -4.196716   -1.401420    1.050478
C     -4.080937   -1.966301   -0.289436
C      5.941990   -1.523865   -1.000151
C     -0.446506    0.317050    1.404380
C     -0.148038   -0.586900   -0.873519
C      7.262671   -1.783337   -0.807012
C      0.913613   -0.344858    1.655222
C      1.065143    0.299817   -0.722254
C     -4.276836   -1.625524   -2.628978
C     -5.048038    0.487851    2.178507
C      3.956810   -0.095057   -0.728256
C     -4.252012    2.712898    1.959368
C     -3.191482    0.108712   -3.818561
C      7.520529    0.186479    0.330816
C     -1.130665   -0.300477    0.220366
C      5.388395   -0.344228   -0.498012
C     -4.108893    0.053406    1.255600
C     -3.699371   -1.136408   -1.439637
C     -4.016119   -0.998252   -3.800352
C     -5.117374    1.803041    2.525244
C      6.181828    0.525095    0.176338
C     -3.306363    2.263556    1.026793
C      3.144416   -0.325017    0.489779
C     -3.245959    0.945900    0.687190
C     -2.210337    0.641930   -0.330339
C     -2.885901   -0.034969   -1.491584
C      5.673459    1.768673    0.732163
Br    -4.781216   -1.625560   -5.467883
Br    -2.153853    3.585798    0.288315
Cl    -6.317927    2.376327    3.709467
N      8.059782   -0.942220   -0.147259
N     -2.645605    0.562188   -2.654310
N      1.752692   -0.135482    0.494373
O      3.715824   -0.697983    1.540948
O      4.486766    2.151192    0.659772
O      6.534342    2.652558    1.415891
H     -3.509365   -1.931089    1.805347
H     -5.218097   -1.727594    1.463151
H     -3.328154   -2.834091   -0.226411
H     -5.010793   -2.533356   -0.617672
H      5.294701   -2.202954   -1.533394
H     -1.012045    0.248581    2.334364
H     -0.194237    1.386868    1.212266
H     -0.558138   -0.410340   -1.896578
H      0.205199   -1.643489   -0.789197
H      7.689087   -2.716168   -1.207213
H      1.323214    0.162854    2.549743
H      0.791946   -1.410918    1.887444
H      1.753579    0.123069   -1.583088
H      0.756999    1.352393   -0.643693
H     -4.914135   -2.484260   -2.597869
H     -5.729735   -0.210979    2.628241
H      3.837439    0.925487   -1.156630
H      3.604906   -0.790408   -1.538607
H     -4.332225    3.748402    2.255513
H     -3.004823    0.583997   -4.769549
H      8.164863    0.860642    0.861378
H     -1.594607   -1.268685    0.542907
H     -1.682447    1.553169   -0.670427
H      6.328757    3.644256    1.415623
