43

C      6.935335   -0.023980   -0.309156
C     -2.674312   -0.960395   -1.093388
C      1.062644   -1.209318    1.385758
C     -0.568194    1.216612   -1.627077
C     -0.298256   -1.077086    1.263032
C     -1.642067    2.086539   -1.036497
C     -4.498391   -0.249126    1.110085
C     -3.055422   -0.555358    1.289661
C      4.464074   -0.218993    0.020225
C      1.417502    0.236664   -0.456475
C      5.875362   -1.403314    1.473670
C      5.692288   -0.548887    0.397763
C      0.054244    0.362726   -0.571235
C      1.944164   -0.561015    0.536043
C     -0.817995   -0.280983    0.272207
C      3.378383   -0.719406    0.689526
C     -2.568987    1.345786   -0.122415
C     -4.802063    0.666877    0.009579
C     -2.254871   -0.098323    0.083827
N     -3.958812    1.418600   -0.589748
O     -6.131449    0.737857   -0.438853
S      4.155307   -1.766321    1.989739
H      6.669724    0.991224   -0.657591
H      7.754687    0.107492    0.420459
H      7.233192   -0.683856   -1.128792
H     -1.792439   -1.370486   -1.635194
H     -3.233799   -1.846092   -0.729956
H     -3.358509   -0.408818   -1.779026
H      1.504109   -1.838383    2.167676
H     -0.870814    0.657711   -2.519270
H      0.246524    1.919411   -1.973145
H     -0.949821   -1.618344    1.969672
H     -1.124791    2.890952   -0.460568
H     -2.156334    2.591760   -1.877258
H     -5.070002   -1.197705    0.917621
H     -4.958700    0.168142    2.045448
H     -2.933261   -1.635133    1.489601
H     -2.638689   -0.009443    2.167904
H      4.228632    0.475040   -0.850974
H      2.094173    0.748464   -1.126644
H      6.716918   -1.787198    1.932167
H     -2.586202    1.832185    0.891542
H     -6.483081    1.613919   -0.846190
