44

C      2.425840    2.122716    1.954610
C      2.487667    3.208333   -0.302066
C     -0.979406    0.692443   -1.745881
C     -1.709291    1.950472   -1.263450
C     -2.025267   -0.027058    0.386180
C      2.456258   -3.434279    0.677925
C     -0.126899   -3.418811   -0.292793
C      2.385308    1.910235    0.461415
C     -1.082226   -0.429757   -0.757719
C      1.811923   -4.632477    0.478568
C      0.523548   -4.595399   -0.006631
C      1.805245   -2.254556    0.391442
C      0.522951   -2.211035   -0.091701
C     -3.145251    1.671264   -0.929654
C     -3.351200    0.319976   -0.302796
C      1.212871   -0.152164    0.094163
Cl     2.606025   -6.173951    0.831660
Cl    -0.302441   -6.104689   -0.263148
N      1.232031    1.128694    0.055916
N      2.209420   -0.954221    0.496975
N      0.168326   -0.907133   -0.271281
O     -3.532345    2.630639    0.034422
O     -4.339181    0.322112    0.672449
H      3.270733    1.591514    2.441591
H      1.498593    1.731843    2.455490
H      2.537572    3.212266    2.203327
H      3.300713    3.181777   -1.071885
H      1.545429    3.332468   -0.879239
H      2.715429    4.055946    0.354679
H      0.038534    0.994388   -1.997744
H     -1.478968    0.442073   -2.722931
H     -1.707737    2.645497   -2.152551
H     -1.170556    2.467175   -0.467415
H     -2.126211   -0.915578    1.033635
H     -1.588327    0.832423    0.899981
H      3.468955   -3.455944    1.059046
H     -1.135521   -3.358816   -0.673729
H      3.282691    1.306048    0.196536
H     -1.601470   -1.270821   -1.266116
H     -3.831152    1.799607   -1.776113
H     -3.541539   -0.474190   -1.055843
H      3.145398   -0.626786    0.836858
H     -3.691434    2.221909    0.914788
H     -4.185040   -0.374154    1.359031
