68

C      9.091497    3.150385    0.640844
C     -6.753935    1.850782   -2.068443
C     -5.783585    1.799472    0.145629
C     -7.543857    0.190986   -0.417388
C     -2.247892   -2.052006    3.949199
C      8.049157    4.009591   -0.061834
C      1.916421    1.982208    0.920104
C      0.757558    1.233166    0.926617
C      4.248548   -3.855784   -2.140196
C      3.148609   -3.861692   -2.951415
C     -3.836924   -1.949843   -1.171215
C      5.082431    0.206477   -0.965405
C     -0.890951   -1.979998   -0.247480
C     -1.738887   -0.322911    1.173898
C      3.008145    1.425312    0.294434
C      5.297384    1.463228   -0.417269
C     -2.123649   -2.537058    0.508104
C     -2.321607   -1.648374    1.665224
C      0.656183   -0.014923    0.346495
C     -4.815621   -0.991597   -0.631845
C      4.226043    2.048970    0.211834
C      2.878144    0.153907   -0.288185
C      6.562362    2.168658   -0.473162
C      3.843779   -1.736838   -1.522821
C     -6.323527    0.906954   -0.936604
N      4.498634   -2.766374   -1.486194
N     -3.168306   -2.834410   -0.353620
N      1.740039   -0.527004   -0.255140
N     -0.576140   -0.745917    0.399696
N      3.921557   -0.415255   -0.900234
O     -5.214576   -0.968336    0.549194
O      4.301687    3.196832    0.750197
O      7.534523    1.588405   -1.042431
O     -1.509833   -2.029155    2.767736
O      6.760291    3.418639    0.052764
O     -5.383511   -0.003859   -1.454539
S      2.537047   -2.150696   -2.662381
H      9.492701    2.357587   -0.024422
H      9.957230    3.766992    0.948635
H      8.651276    2.640316    1.543514
H     -7.691410    2.377827   -1.763746
H     -6.900802    1.300344   -2.997130
H     -5.967105    2.616307   -2.135339
H     -5.488710    1.274254    1.053593
H     -6.652238    2.459125    0.445205
H     -5.015967    2.504808   -0.251711
H     -8.436502    0.478747   -1.018116
H     -7.389399   -0.906973   -0.527535
H     -7.729985    0.447424    0.662261
H     -1.556430   -2.354892    4.757280
H     -2.539977   -0.996990    4.147054
H     -3.102363   -2.740611    3.940116
H      8.345399    4.076813   -1.144196
H      8.084805    5.024522    0.364112
H      1.988561    2.957539    1.375020
H     -0.124493    1.672228    1.422864
H      4.875331   -4.779649   -2.080243
H      2.659403   -4.584576   -3.623046
H     -4.435019   -2.555651   -1.943998
H     -3.154591   -1.350534   -1.860124
H      5.934972   -0.253949   -1.461506
H     -1.161379   -1.867812   -1.311957
H     -0.029714   -2.664427   -0.161261
H     -2.451938    0.273050    0.590077
H     -1.432271    0.272877    2.049440
H     -1.727454   -3.565996    0.879895
H     -3.293998   -1.488690    2.061900
H     -3.535171   -3.791948   -0.263178
