48

C     -5.851861   -2.714692   -0.084575
C      2.792501   -1.292976    1.260097
C      2.659666   -0.523915   -0.938001
C     -1.359254    2.011372    0.780019
C      0.789725    2.500847   -0.041449
C      4.186268   -1.374538    1.142958
C      4.045646   -0.596553   -1.073914
C     -1.467015    3.245773    1.337351
C      0.685899    3.757384    0.520169
C     -3.538347   -0.624361   -2.010949
C     -2.256876   -0.112720   -1.814600
C     -3.348848   -1.637032    0.176210
C     -0.063512   -0.782896    1.640406
C      2.011975   -0.867438    0.220416
C     -0.247540    1.560559    0.068145
C      4.799214   -1.024827   -0.024004
C     -0.441401    4.140585    1.213976
C     -4.043336   -1.388725   -0.975259
C     -1.529577   -0.345850   -0.667968
C      0.579202   -0.806459    0.304499
C     -2.076069   -1.115964    0.344926
C     -0.127866    0.217689   -0.527949
C      6.307774   -1.126501   -0.152599
F      6.697177   -0.627255   -1.371082
F      6.863591   -0.489850    0.924617
F      6.586254   -2.501421   -0.057347
O     -0.563060    5.408742    1.786314
O     -5.312151   -1.919696   -1.127681
O     -1.354000   -1.365676    1.521144
H     -6.143595   -2.072732    0.766456
H     -6.791049   -3.239253   -0.391827
H     -5.131985   -3.509712    0.237772
H      2.424819   -1.594926    2.227407
H      2.167792   -0.171903   -1.841017
H     -2.193360    1.302389    0.893015
H      1.685936    2.261089   -0.564016
H      4.814746   -1.716059    1.959457
H      4.549191   -0.319191   -2.006470
H     -2.343470    3.565837    1.891460
H      1.482334    4.497174    0.437473
H     -4.117451   -0.444160   -2.905535
H     -1.827426    0.495164   -2.607078
H     -3.719809   -2.226247    0.995524
H     -0.234898    0.275114    1.967958
H      0.443495   -1.337665    2.445380
H      0.226152   -1.810984   -0.157992
H      0.227211    0.248021   -1.578951
H     -0.942813    6.194439    1.295903
