28

C      4.482485   -0.477476   -1.185058
C      0.206492    1.478884    0.132541
C      0.239030   -0.779549   -0.559072
C      1.586177    1.539268   -0.082467
C      1.595693   -0.703347   -0.765424
C     -2.440199    1.435803    0.857686
C     -0.469681    0.316835   -0.106057
C      2.305430    0.454999   -0.533537
C     -1.924267    0.247209    0.121562
C     -3.576084   -0.937641    1.360488
N     -4.391264   -1.890375    1.651630
N     -2.309990   -0.941406    0.777747
O      3.673862    0.579312   -0.727212
S     -3.947911    0.783387    1.683028
Cl     0.692522    0.000000    0.000000
H      5.466145   -0.064412   -1.437057
H      4.001403   -0.941110   -2.083177
H      4.558270   -1.235152   -0.354100
H     -0.287562    2.365075    0.483376
H     -0.319890   -1.686241   -0.740006
H      2.117260    2.460923    0.107727
H      2.135109   -1.568969   -1.119687
H     -2.639329    2.323504    0.268395
H     -1.747294    1.661737    1.694673
H     -2.409479    0.256800   -0.898002
H     -4.238294   -2.889257    1.493357
H     -1.666112   -1.788802    0.819781
H     -0.692522    0.000000    0.000000
