54

C      7.818026    1.026454   -0.302076
C      7.039952   -1.281402   -0.117900
C     -4.681634    1.432306    0.911800
C     -6.865647    0.157967    0.689606
C      2.097102    0.200887   -1.658526
C     -3.905132    1.731812   -0.399240
C     -7.562853   -0.980788    0.243227
C      3.445167    0.352140   -1.930875
C      2.536414   -0.123085    0.693089
C     -3.337953   -0.675528   -0.203393
C     -5.515345   -1.897715   -0.506427
C     -0.443011    1.156607    0.148896
C      4.886329   -0.053505    1.517447
C     -5.510262    0.250317    0.531448
C      1.637104   -0.032912   -0.375923
C     -4.814287   -0.779060   -0.068690
C      3.871840    0.026540    0.428643
C     -2.774631    0.677361   -0.363743
C     -6.880971   -2.017753   -0.361480
C      0.193848   -0.184087   -0.104148
C      4.311529    0.257852   -0.854820
C      6.596631    0.142055   -0.020017
N     -1.789699    1.064157    0.600213
O     -7.599939   -3.146862   -0.806162
O     -0.401346   -0.956432   -1.059530
O      6.096695    0.513174    1.199574
O      5.687520    0.402057   -1.076882
H      8.718943    0.669438    0.241416
H      7.598046    2.057960    0.002505
H      8.017235    1.065975   -1.404526
H      6.170744   -1.963598   -0.154300
H      7.730024   -1.554764    0.729546
H      7.568201   -1.415296   -1.094980
H     -3.956045    1.085214    1.685425
H     -5.247666    2.292854    1.253683
H     -7.381039    0.953490    1.161798
H      1.411330    0.275272   -2.501860
H     -3.530515    2.754236   -0.437025
H     -4.547631    1.443665   -1.255372
H     -8.631380   -1.055293    0.369652
H      3.809505    0.534000   -2.935330
H      2.204122   -0.308198    1.718696
H     -3.094688   -1.319602   -1.103600
H     -2.815080   -1.174502    0.673018
H     -4.983023   -2.722554   -0.984040
H     -0.334111    1.780642   -0.774865
H      0.166164    1.681086    0.909012
H      4.509057    0.484985    2.430031
H      5.076145   -1.125532    1.805381
H     -2.286427    0.825261   -1.380960
H      0.086946   -0.773974    0.862151
H     -2.066736    2.026229    0.971565
H     -7.957569   -3.123398   -1.770334
H     -0.370000   -0.656151   -1.978127
