35

C     -3.396488   -1.838719   -0.004413
C      3.710898   -1.607122   -0.635911
C     -2.922176   -1.371149   -1.209150
C     -2.738160   -1.501852    1.159897
C      2.972851   -1.169671   -1.716065
C      3.234637   -1.285304    0.627348
C     -1.793851   -0.571076   -1.237651
C     -1.613128   -0.700726    1.100686
C      1.827275   -0.452986   -1.523775
C      2.078531   -0.562238    0.811157
C     -1.107422   -0.212152   -0.093449
C      1.340177   -0.124818   -0.279900
C      0.102269    0.647899   -0.157583
C      0.142084    1.671902    0.960940
C     -1.058676    2.516704    0.825528
N      1.311548    2.494920    0.719390
O     -0.942971    3.725497    0.544285
O     -2.308899    1.967468    1.010478
Cl     0.685792    0.000000    0.000000
H     -4.282240   -2.461235   -0.032556
H      4.617182   -2.173457   -0.755554
H     -3.418357   -1.617966   -2.151059
H     -3.144202   -1.890545    2.086032
H      3.312751   -1.401257   -2.712585
H      3.808789   -1.625502    1.472843
H     -1.441979   -0.219271   -2.176243
H     -1.129307   -0.461467    2.031849
H      1.264773   -0.120735   -2.404206
H      1.698851   -0.306442    1.780866
H     -0.006872    1.258955   -1.102470
H      0.176549    1.186477    1.958896
H      1.725928    2.341946   -0.229122
H      1.105962    3.518380    0.786155
H     -3.126326    2.345544    0.545345
H     -0.685792    0.000000    0.000000
