73

C      3.630306   -1.893472    2.197290
C      7.306452    0.755528   -3.683938
C     -8.697137    2.780732   -1.982236
C     -0.218906   -4.574256    0.674627
C     -1.465779   -4.955527    0.244040
C      0.051838   -3.272213    1.084107
C     -2.474152   -4.030524    0.215553
C      5.369399    2.378015    0.496334
C      5.914097    0.089824    0.296064
C     -5.247931    0.650262   -0.771754
C     -5.588243    1.369062    1.469447
C      5.826144    2.566427   -0.794987
C      6.370344    0.276747   -0.992916
C     -6.381965    1.350789   -1.170460
C     -6.710046    2.057753    1.053719
C      4.943802    0.868666    2.412815
C      3.476490    0.507748    2.468430
C      1.848669   -0.683236    1.124725
C      0.753665   -0.994156    2.088074
C     -1.897051    1.075659   -1.721947
C      5.416733    1.124181    1.041391
C     -4.838191    0.648457    0.539551
C      6.333584    1.527592   -1.564046
C     -7.131215    2.066477   -0.261032
C     -0.963029   -2.345580    1.054180
C     -2.242394   -2.710165    0.619499
C     -1.618759    0.370823   -2.998763
C     -2.367304    0.578816    0.505735
C     -3.639480   -0.087649    0.995475
C     -1.265250    0.198305    1.465225
N      3.141685   -0.650936    1.732449
N     -0.568783   -1.051479    1.496124
O     -1.410459    1.054800   -4.023129
O     -1.579861   -1.008787   -3.104075
O     -0.909320    1.036903    2.323307
O      6.780800    1.770990   -2.859391
O     -8.266017    2.772691   -0.634532
O     -2.090164    0.121597   -0.754674
S     -3.758153   -1.789380    0.462408
H      3.929424   -2.515329    1.339343
H      2.920873   -2.483172    2.801358
H      4.584680   -1.691641    2.761849
H      6.481256    0.185714   -4.154639
H      7.957860    0.040750   -3.124013
H      7.947456    1.180603   -4.490311
H     -7.991198    3.447634   -2.553890
H     -8.650279    1.756032   -2.360820
H     -9.715950    3.218225   -1.998306
H      0.554796   -5.324271    0.686303
H     -1.678661   -5.986535   -0.080268
H      1.023647   -2.987265    1.419869
H     -3.474427   -4.292588   -0.118410
H      4.987213    3.246527    1.030101
H      5.964787   -0.912066    0.697928
H     -4.644072    0.078641   -1.479855
H     -5.288083    1.385222    2.508025
H      5.801112    3.561370   -1.262239
H      6.764087   -0.536823   -1.587392
H     -6.658995    1.317564   -2.215416
H     -7.326627    2.635224    1.750529
H      5.039574    1.839109    2.973445
H      5.569959    0.140001    2.969975
H      3.174120    0.475470    3.531643
H      2.929027    1.373615    2.019495
H      1.697194    0.390556    0.753773
H      1.879151   -1.244820    0.188336
H      0.960866   -1.719427    2.876481
H      0.698882   -0.039207    2.723554
H     -1.001264    1.711118   -1.535735
H     -2.807813    1.665451   -1.853236
H     -2.443876    1.669207    0.592127
H     -3.606945   -0.078120    2.129468
H     -1.412194   -1.458253   -4.016596
