76

C     -7.077026   -0.368619   -0.884318
C      3.553665   -3.238460   -1.799360
C     -8.484433    2.729605    2.166055
C     -6.130593   -1.064878   -1.801661
C      8.960128    1.302969   -0.686528
C      7.632654    1.544674   -0.368100
C      9.359271   -0.016737   -0.778526
C      2.913454    2.002678    1.590270
C      2.306067    3.179434    1.253897
C      4.991215   -1.856419    0.264255
C      6.769303    0.489503   -0.157965
C      8.484298   -1.051071   -0.565875
C      6.273481   -1.950375   -0.033139
C      2.248958    0.793607    1.414816
C      1.023846    3.107398    0.741474
C     -4.334783    2.154564   -0.311250
C     -4.484317    1.251983    1.855391
C     -5.627057    2.624859   -0.196767
C     -5.773631    1.721149    1.970025
C      4.119398   -3.034433    0.476118
C      2.101075   -2.011275   -0.432641
C      1.481775   -1.666430    0.896829
C     -2.321039   -1.066624   -2.226599
C      7.160594   -0.820893   -0.248663
C     -3.713721    1.455118    0.699607
C     -6.372756    2.419755    0.941002
C      0.976046    0.698651    0.907704
C      0.375923    1.905784    0.572138
C     -3.748074   -1.267075   -2.297463
C     -2.051902   -0.314536   -0.034991
C     -2.346195    0.953112    0.657437
C     -0.875294   -1.017188    0.621261
N      3.068134   -3.020190   -0.458196
N      0.493704   -0.633885    0.814480
O     -4.152839   -2.103275   -3.197519
O     -1.123632   -2.152458    1.093177
O     -7.674473    2.898249    1.046345
O     -4.760648   -0.710659   -1.554886
O     -1.766573   -0.177635   -1.383531
S     -1.230778    2.209233   -0.101312
H     -8.005288   -1.005840   -0.792239
H     -6.657418   -0.352906    0.159582
H     -7.416953    0.611230   -1.237005
H      2.856444   -2.816017   -2.564793
H      4.521310   -2.706376   -1.974424
H      3.624381   -4.326455   -2.001227
H     -8.923032    1.735224    2.293973
H     -9.308442    3.500039    2.103127
H     -7.911531    3.048026    3.085041
H     -6.287158   -2.167825   -1.688759
H     -6.352910   -0.825288   -2.854670
H      9.669516    2.110804   -0.859792
H      7.337319    2.588875   -0.299128
H     10.401088   -0.182754   -1.028280
H      3.916228    2.031632    1.993812
H      2.844148    4.097587    1.400650
H      4.553942   -0.883867    0.357575
H      5.740850    0.714232    0.089801
H      8.874858   -2.070259   -0.657024
H      6.711798   -2.953573   -0.127695
H      2.766222   -0.082511    1.688811
H      0.545090    4.034384    0.476854
H     -3.739212    2.317477   -1.214175
H     -4.030625    0.697097    2.687184
H     -6.075430    3.178631   -1.035932
H     -6.380254    1.567511    2.859521
H      3.719607   -2.923223    1.519051
H      4.702174   -3.982674    0.500884
H      1.307472   -2.284777   -1.191924
H      2.547409   -1.067126   -0.866253
H      0.812863   -2.615188    1.053222
H      2.084433   -1.768680    1.778805
H     -1.964859   -0.816557   -3.270888
H     -1.854211   -2.078712   -1.996101
H     -2.870924   -1.042369    0.058079
H     -2.002131    0.821016    1.723415
