28

C      4.241828    0.845948    0.670711
C      0.037424    0.390824    0.358897
C      0.388911   -1.265963   -1.281936
C      1.388626    0.544415    0.466307
C      1.749503   -1.133714   -1.195817
C     -2.413393   -1.512775    0.499994
C     -0.470888   -0.524346   -0.524765
C      2.252202   -0.211099   -0.304646
C     -1.961760   -0.680349   -0.629801
C     -3.096339    1.074223    0.520087
N     -3.472728    2.264266    0.778214
N     -2.584714    0.564598   -0.677053
O      3.617140   -0.055510   -0.195709
S     -3.130412   -0.292967    1.670659
Cl     0.686916    0.000000    0.000000
H      4.034666    0.658580    1.732048
H      3.942071    1.889983    0.445754
H      5.348630    0.720362    0.529494
H     -0.626142    0.987770    0.967432
H     -0.012430   -1.990122   -1.981198
H      1.771124    1.273051    1.170571
H      2.413706   -1.728658   -1.802406
H     -3.187792   -2.270772    0.240441
H     -1.569351   -2.006149    1.020917
H     -2.141153   -1.244837   -1.569319
H     -3.845488    2.587030    1.687549
H     -2.673243    1.116211   -1.583186
H     -0.686916    0.000000    0.000000
