46

C      7.334048    0.639446   -0.450455
C     -2.246333    0.581470   -1.659553
C     -4.944048   -1.385966   -0.098351
C      1.848380    1.006664   -0.464976
C     -0.832956   -1.998773    0.885613
C      0.467185    1.226389   -0.522977
C     -2.180111   -1.831150    0.183427
C     -3.617910    2.260539    0.038395
C     -2.209823    1.898353    0.458470
C      4.828687    0.359802   -0.266151
C      1.435972   -1.126293    0.455325
C      6.204520   -1.381125    0.440788
C      6.063351   -0.117531   -0.094470
C      0.074904   -0.925608    0.404921
C      2.311198   -0.169818    0.024797
C     -0.421484    0.265720   -0.090292
C      3.741326   -0.375324    0.075475
C     -2.698170   -0.479555    0.545601
C     -4.513892    1.096235    0.029113
C     -1.869678    0.571818   -0.183438
N     -4.074973   -0.255344    0.152236
O     -5.750234    1.289820   -0.094754
S      4.480864   -1.893245    0.703742
H      7.113841    1.667967   -0.719340
H      7.829862    0.096521   -1.267162
H      8.017130    0.569907    0.443846
H     -1.471485    0.042622   -2.243285
H     -2.241889    1.631262   -2.005930
H     -3.237738    0.121147   -1.840265
H     -5.964935   -1.029849   -0.291626
H     -4.905840   -2.092720    0.755918
H     -4.619678   -1.920639   -1.025179
H      2.537664    1.765147   -0.806271
H     -0.454823   -2.999973    0.588925
H     -0.951775   -1.976182    1.991250
H      0.160858    2.182868   -0.923261
H     -1.966973   -1.854903   -0.896999
H     -2.845839   -2.658620    0.475131
H     -4.018391    2.983477    0.800062
H     -3.596503    2.730415   -0.948569
H     -1.507033    2.667164    0.142340
H     -2.234839    1.739499    1.559035
H      4.644081    1.398236   -0.704480
H      1.809725   -2.069036    0.847710
H      7.091443   -1.994122    0.679304
H     -2.617684   -0.256712    1.634296
