46

C      4.224280    0.102054   -2.186787
C     -1.802144   -1.518808   -0.952768
C     -4.380879    1.668738   -0.120166
C      2.138780   -0.964082    1.296667
C     -0.370275    1.136312   -1.404055
C      0.767860   -1.203462    1.259804
C     -1.611003    1.574650   -0.712657
C     -3.524066   -1.771690    1.241034
C      4.854214    0.557785    1.500336
C     -2.061879   -1.491204    1.483722
C      6.150715    0.851082    1.385706
C      1.860256    0.640453   -0.426137
C      4.748618    0.343078   -0.801535
C      2.653414   -0.038776    0.443550
C      0.508053    0.399569   -0.457634
C      4.115761    0.295718    0.413814
C     -0.043713   -0.524632    0.386475
C     -2.165983    0.624556    0.295569
C     -4.212414   -0.716421    0.489476
C     -1.508247   -0.731728    0.296317
N     -3.596234    0.519128    0.222571
O     -5.372850   -0.936009    0.083877
S      6.406784    0.765464   -0.376711
H      4.012811    1.033423   -2.728945
H      3.329833   -0.540502   -2.063469
H      5.043965   -0.441619   -2.720468
H     -2.610345   -1.064243   -1.561942
H     -0.884503   -1.658988   -1.560798
H     -2.152960   -2.539091   -0.692873
H     -3.797461    2.604318    0.094030
H     -4.696231    1.673118   -1.190947
H     -5.324717    1.746521    0.466296
H      2.797057   -1.481672    1.970759
H      0.188327    2.067164   -1.719278
H     -0.540019    0.580658   -2.350148
H      0.350118   -1.942655    1.940363
H     -1.462894    2.594608   -0.277848
H     -2.398702    1.727081   -1.507245
H     -4.059148   -1.930619    2.210148
H     -3.673055   -2.735324    0.671079
H      4.385077    0.532617    2.523543
H     -1.979438   -0.871457    2.391249
H     -1.578369   -2.484656    1.600647
H      6.920766    1.091032    2.114495
H      2.291036    1.390376   -1.110051
H     -1.940194    1.068132    1.311391
