79

C     -5.261647    5.533951   -2.160470
C      3.564517   -0.876174   -0.192879
C     10.022805   -1.266717    1.396518
C     -5.334173   -4.934666    3.456024
C     -3.764345    5.590624   -2.198391
C      0.303859   -2.253351   -3.788563
C     -0.814611   -2.351138   -4.576289
C      0.209041   -1.699478   -2.529520
C     -2.002110   -1.881351   -4.058461
C      6.270927    0.445000    2.334276
C      6.015771    1.032674    0.084672
C     -5.777721   -0.896115    0.756740
C     -3.810463   -2.140643    0.499586
C      7.492731   -0.114376    2.037288
C      7.231946    0.483284   -0.246986
C     -6.248923   -1.790588    1.692908
C     -4.280260   -3.055025    1.449334
C      4.209264    1.645998    1.627668
C      3.015507    0.757745    1.532815
C      1.472352    0.274937   -0.289847
C      0.526257   -0.876668   -0.025301
C     -2.998352    2.944787    0.426871
C      5.501436    1.034092    1.359710
C     -4.552306   -1.042322    0.135289
C      7.999708   -0.107182    0.739800
C     -5.504291   -2.892327    2.057951
C     -0.966073   -1.222676   -1.989350
C     -2.090448   -1.320360   -2.778275
C     -3.530264    3.597527   -0.770909
C     -2.954321    0.786599   -0.400244
C     -4.058683   -0.058767   -0.892310
C     -1.775553   -0.023576    0.062665
N      2.750654    0.131521    0.315940
N     -0.753543   -0.702994   -0.658873
O     -4.245501    3.045267   -1.628360
O     -1.679053   -0.113775    1.307267
O      9.217438   -0.658063    0.412041
O     -5.986653   -3.793955    3.005053
O     -3.250100    4.954568   -1.036267
O     -3.334761    1.631103    0.592252
S     -3.741484   -0.846188   -2.463654
H     -5.686854    6.573894   -2.145999
H     -5.605231    4.958391   -1.271644
H     -5.677199    5.078928   -3.104976
H      4.005720   -0.607872   -1.193223
H      4.331771   -1.272896    0.507076
H      2.941556   -1.788646   -0.438083
H     10.404534   -0.467857    2.081532
H      9.372505   -1.972324    1.976237
H     10.842951   -1.856836    0.972053
H     -4.798812   -5.402006    2.579811
H     -4.636103   -4.779829    4.287832
H     -6.135671   -5.690187    3.704216
H     -3.383918    5.031414   -3.096556
H     -3.444311    6.645078   -2.216745
H      1.252129   -2.617941   -4.177467
H     -0.735054   -2.786177   -5.563783
H      1.094128   -1.643653   -1.950674
H     -2.884335   -1.953969   -4.668666
H      5.923269    0.413826    3.352438
H      5.433872    1.487111   -0.698877
H     -6.377026   -0.024593    0.475228
H     -2.855950   -2.330977    0.066122
H      8.115380   -0.585167    2.799659
H      7.629458    0.486700   -1.252172
H     -7.217112   -1.674515    2.183764
H     -3.682893   -3.918819    1.728196
H      4.240688    2.009508    2.699265
H      4.099095    2.589919    1.041732
H      3.134891   -0.012556    2.343215
H      2.141053    1.370582    1.889170
H      1.044221    1.227887    0.180217
H      1.522303    0.574066   -1.366175
H      0.954880   -1.866491   -0.011607
H      0.298493   -0.729483    1.086407
H     -1.872419    3.047603    0.432767
H     -3.369880    3.495535    1.332158
H     -2.560565    1.412621   -1.236109
H     -4.948137    0.608531   -1.063627
