59

C     -5.168486    4.452180    1.029745
C      4.435211   -0.761049   -3.795880
C     -4.062918   -5.610075   -0.583500
C     -4.327077    3.248149    1.294094
C      4.526295    1.596283    2.432976
C      4.210389    0.553909    3.282760
C      3.903894    1.743771    1.194590
C      3.247119   -0.386448    2.911964
C     -1.161104   -2.477308   -0.356100
C     -1.974996   -1.996671    1.842060
C     -2.102764   -3.479617   -0.406513
C     -2.921104   -3.005682    1.788375
C      4.192354    1.012897   -2.208961
C      3.239273    1.833586   -1.384460
C     -2.005363    1.371520   -1.078942
C     -1.110383   -1.723665    0.810881
C     -2.972746   -3.756307    0.627780
C      2.957845    0.819396    0.832327
C      2.649168   -0.234314    1.707930
C     -2.751872    1.771132    0.123357
C     -0.145620    0.403705   -0.038845
C     -0.137350   -0.619902    0.983227
C      1.097676    0.649023   -0.840712
N      3.483438    0.085879   -3.058815
N      2.407995    1.109198   -0.478936
O     -2.614231    1.109345    1.168769
O      1.008786    0.414310   -2.102414
O     -3.920488   -4.790322    0.535140
O     -3.593966    2.850196    0.125789
O     -1.188464    0.297109   -0.981516
S      1.442268   -1.490540    1.298358
H     -5.220183    5.137709    1.922862
H     -4.759075    5.053162    0.183897
H     -6.221927    4.221687    0.771513
H      5.431061   -0.287096   -3.856429
H      4.077929   -1.002506   -4.812304
H      4.535616   -1.714678   -3.237928
H     -4.762580   -5.094422   -1.286872
H     -4.519549   -6.602590   -0.326073
H     -3.092835   -5.865772   -1.055421
H     -5.026571    2.392890    1.491566
H     -3.677351    3.374915    2.168584
H      5.278711    2.295206    2.769052
H      4.673625    0.410678    4.249353
H      4.136657    2.534680    0.532599
H      2.964389   -1.218857    3.539575
H     -0.469732   -2.236059   -1.142491
H     -1.966076   -1.421819    2.783160
H     -2.158130   -4.082130   -1.315606
H     -3.584243   -3.188308    2.623353
H      4.815093    1.642568   -2.879168
H      4.908242    0.422825   -1.607789
H      2.460566    2.085951   -2.227921
H      3.527347    2.850481   -1.160973
H     -1.521442    2.294569   -1.467845
H     -2.761453    1.124879   -1.889377
H     -0.354951    1.419058    0.427093
H     -0.359149   -0.158759    1.992834
H      3.003235    0.622050   -3.863772
