72

C      8.899756    3.164020   -1.974631
C     -6.043442    0.621380   -3.565966
C     -5.786718   -3.780425    1.649295
C     -2.068881    2.631127    1.265227
C     -6.291427    0.829811   -2.230344
C     -4.934393   -0.119777   -3.918228
C     -5.956445   -3.592303    0.307063
C     -4.841794   -3.065266    2.307889
C     -3.127115    1.941163    1.808606
C     -1.429511    2.151951    0.134736
C     -5.425675    0.292977   -1.284487
C     -4.069078   -0.655644   -2.951683
C     -5.178137   -2.683918   -0.383615
C     -4.062076   -2.150020    1.592255
C     -3.584189    0.759255    1.253504
C     -1.913101    0.979793   -0.381793
C      6.985693    3.455393   -0.383353
C      7.265424    1.359248   -1.492146
C     -0.382063   -1.901391    1.509573
C      5.864575    2.917162    0.247909
C      6.163225    0.827140   -0.873199
C      0.582411   -1.415489    2.345447
C      0.770337   -0.913463   -0.302677
C     -1.316462   -2.191493   -0.795034
C      7.681298    2.652395   -1.259638
C     -0.299450   -1.653111    0.157641
C      5.461853    1.622364    0.004779
C     -4.335793   -0.434713   -1.623664
C     -4.185660   -1.920482    0.258790
C     -2.979955    0.262448    0.148795
C      1.630863   -0.684829    1.852663
C      1.769870   -0.401913    0.503459
C      4.621551   -0.024623    1.654901
C      4.264924    1.107849    0.712299
C      3.774106   -0.007859    2.863796
C     -3.400122   -1.008709   -0.561330
N      2.514443   -0.290922    2.916598
O      4.355210   -1.225664    0.985188
O      4.346587    0.338937    4.069197
O     -2.346093   -1.517401   -1.190119
S      3.001774    0.506541   -0.423390
H      9.815112    2.618061   -1.624460
H      8.720156    3.010779   -3.055454
H      9.066267    4.228996   -1.705358
H     -6.715203    1.036374   -4.336426
H     -6.390588   -4.488627    2.203617
H     -1.727200    3.554057    1.715019
H     -7.147290    1.401487   -1.928043
H     -4.737259   -0.284565   -4.949769
H     -6.726067   -4.181547   -0.206110
H     -4.686167   -3.199581    3.385304
H     -3.635560    2.325043    2.708164
H     -0.592323    2.674196   -0.317689
H     -5.659025    0.476731   -0.269853
H     -3.205518   -1.233678   -3.229305
H     -5.370479   -2.588836   -1.443329
H     -3.327757   -1.630141    2.171778
H     -4.434370    0.258798    1.703602
H     -1.423296    0.598398   -1.285065
H      7.300529    4.464106   -0.194597
H      7.835920    0.757991   -2.187279
H     -1.220199   -2.501138    1.875518
H      5.328923    3.560194    0.934238
H      5.795372   -0.176580   -1.020597
H      0.466795   -1.639413    3.408483
H      0.860297   -0.698365   -1.365149
H     -1.524412   -3.271919   -0.475350
H     -0.667874   -2.410695   -1.726372
H      5.684513    0.034503    1.925272
H      3.806189    1.893681    1.345877
H      4.696190   -2.011964    1.458338
H      3.818004    0.642112    4.877018
