72

C      7.467856    0.925770    3.779606
C     -7.425809   -0.992410   -0.132136
C     -3.802681    4.611727   -0.149142
C     -0.909049   -1.020114    2.569689
C     -6.902129   -0.828260   -1.393941
C     -6.640309   -0.726113    0.976606
C     -3.833358    4.051077   -1.404151
C     -3.628710    3.779050    0.909710
C     -0.642366    0.202578    1.995251
C     -1.949747   -1.780965    2.101846
C     -5.602544   -0.400612   -1.496867
C     -5.324015   -0.293226    0.828690
C     -3.692347    2.674641   -1.608561
C     -3.485131    2.394027    0.726071
C     -1.444617    0.619123    0.957410
C     -2.718898   -1.339815    1.078629
C      7.137053    1.048583    1.331260
C      5.517662   -0.128456    2.577713
C     -0.809437   -1.860991   -1.594828
C      6.443575    0.772251    0.171801
C      4.828933   -0.400370    1.407453
C      0.281606   -2.502837   -1.062241
C      0.450454    0.138706   -1.720884
C     -1.925529    0.124469   -2.528616
C      6.684827    0.602866    2.549037
C     -0.741962   -0.530054   -1.932496
C      5.265570    0.037486    0.174577
C     -4.803473   -0.129943   -0.410370
C     -3.516244    1.842893   -0.530525
C     -2.505274   -0.107380    0.448290
C      1.485075   -1.861587   -0.839693
C      1.532767   -0.514034   -1.188218
C      4.493827   -1.710839   -1.393738
C      4.503877   -0.268739   -1.073480
C      3.762831   -2.605713   -0.518020
C     -3.370476    0.353002   -0.653945
N      2.507991   -2.676569   -0.280357
O      5.843636   -2.135443   -1.428804
O      4.503855   -3.563217    0.204640
O     -3.067379   -0.058634   -1.891130
S      2.925583    0.546614   -1.010219
H      8.197063    0.146502    4.039320
H      8.053327    1.873964    3.621862
H      6.819368    1.098784    4.651755
H     -8.454915   -1.330968   -0.052218
H     -3.909195    5.673553    0.029754
H     -0.289122   -1.386160    3.401503
H     -7.455233   -1.016747   -2.307494
H     -7.088187   -0.867267    1.945286
H     -3.973169    4.717777   -2.256772
H     -3.603403    4.212513    1.906877
H      0.174006    0.808482    2.355598
H     -2.177678   -2.756032    2.545333
H     -5.173528   -0.265601   -2.480272
H     -4.738626   -0.094857    1.692272
H     -3.734283    2.279411   -2.612683
H     -3.364723    1.853098    1.649781
H     -1.204696    1.582153    0.523396
H     -3.553194   -1.944888    0.689612
H      8.063375    1.634450    1.268761
H      5.140532   -0.489794    3.516580
H     -1.747850   -2.426090   -1.750462
H      6.791311    1.121511   -0.812447
H      3.915705   -0.970847    1.420824
H      0.234096   -3.552900   -0.793872
H      0.494571    1.195280   -1.992014
H     -2.018457   -0.366050   -3.557111
H     -1.683875    1.186148   -2.810348
H      4.155275   -1.834060   -2.466217
H      5.093716    0.230552   -1.904862
H      6.088730   -2.569276   -0.554990
H      4.053566   -4.031185    0.981074
