47

C     -3.773395    1.412720    0.455119
C     -1.961463    2.204661   -0.890588
C     -0.025978   -1.737044    1.961882
C     -1.287752   -2.992531    0.424598
C      1.569506   -0.190639   -2.692624
C      1.838373    1.645152    0.339518
C      2.568282   -0.537597    0.746838
C      2.852022    2.144015    1.153059
C      3.589596   -0.056140    1.566446
C      0.460566    0.628698   -2.027490
C      1.180233   -1.299550   -1.728905
C     -1.772405   -0.019629    0.344886
C     -2.604772    0.905474   -0.473666
C      1.675729    0.299254    0.120600
C      3.736173    1.290838    1.773583
C     -0.634264   -0.745717   -0.181754
C      0.587500   -0.209755   -0.764802
Cl     5.029412    1.907461    2.805520
N     -0.324645   -1.955675    0.596090
Cl     0.686632    0.000000    0.000000
H     -3.280229    1.801196    1.336847
H     -4.483935    0.601798    0.615826
H     -4.251551    2.256067   -0.063213
H     -1.734732    2.298830   -1.955682
H     -1.079765    2.349184   -0.255124
H     -2.632316    3.077111   -0.619890
H     -0.852737   -2.197914    2.571125
H      0.183949   -0.710415    2.285280
H      0.879331   -2.354974    2.225300
H     -1.755625   -2.994072   -0.591944
H     -0.788999   -4.015374    0.515424
H     -2.109174   -3.003354    1.141026
H      2.547107    0.292272   -2.539662
H      1.324758   -0.493973   -3.737566
H      1.213636    2.410266   -0.109316
H      2.484661   -1.597935    0.614507
H      2.964746    3.219895    1.305542
H      4.272683   -0.737603    2.046950
H     -0.498153    0.382353   -2.557980
H      0.669041    1.695241   -1.930954
H      2.080498   -1.773523   -1.319072
H      0.432516   -2.005716   -2.092837
H     -1.523776    0.492020    1.345115
H     -2.532442   -0.818857    0.705163
H     -3.105623    0.434086   -1.326633
H     -1.126585   -1.300607   -1.136544
H     -0.686632    0.000000    0.000000
