73

C     -7.634322   -2.277209   -0.831094
C      9.478721   -0.611479   -0.786949
C     -3.643786    0.861524   -4.004999
C     -5.059275   -1.353153    4.959954
C     -7.134943   -3.281523    0.178370
C      7.402705    0.774335   -1.116706
C      8.703678    1.088777    0.828925
C      1.991949    0.163057    1.872155
C      1.781127    1.330458   -0.163337
C     -3.071296   -0.465324    1.213477
C      2.941471    1.067830    2.305795
C      2.738349    2.243912    0.272675
C      6.507972    1.743511   -0.709608
C      7.808671    2.062306    1.241973
C     -3.690808   -0.735595    2.442146
C     -1.271412   -1.229705   -2.865729
C     -1.416737    0.162927   -3.441603
C     -4.736244   -1.705078    0.129620
C     -2.980745    0.759771   -1.680767
C      8.501889    0.426884   -0.376468
C      1.396449    0.269415    0.645962
C     -3.596987   -0.954293    0.039848
C      3.336489    2.140235    1.500296
C      6.706163    2.412755    0.501314
C     -2.946180   -0.677033   -1.226653
C     -1.536550   -1.179300   -1.350067
C     -4.839394   -1.496476    2.502651
C     -5.366122   -1.985436    1.330952
C      0.397699   -0.671401    0.137296
N     -0.543517   -0.242098   -0.833140
N      4.317692    3.062093    1.985027
N     -2.585262    0.857228   -3.049115
O      0.404470   -1.850640    0.584417
O      5.063604    4.434737   -0.117001
O      6.422579    4.600824    1.900404
O     -5.489857   -1.791949    3.686074
O     -6.499252   -2.749311    1.275345
S      5.613076    3.646739    1.050451
H     -7.344331   -1.230145   -0.587938
H     -7.250819   -2.556037   -1.829248
H     -8.764517   -2.371600   -0.820887
H      9.939133   -0.249504   -1.735259
H      8.975371   -1.568021   -1.028193
H     10.253542   -0.736951   -0.019620
H     -4.488961    1.487683   -3.606785
H     -3.964203   -0.118979   -4.363166
H     -3.269076    1.442872   -4.896004
H     -4.299871   -2.066201    5.313453
H     -4.713104   -0.302556    4.972674
H     -5.951868   -1.478823    5.638944
H     -7.923087   -4.024941    0.424173
H     -6.359408   -3.905518   -0.362531
H      7.236742    0.259739   -2.065287
H      9.569878    0.813434    1.409142
H      1.677114   -0.678903    2.492459
H      1.366573    1.481215   -1.137715
H     -2.188411    0.126804    1.220016
H      3.401736    0.980079    3.266081
H      3.046447    3.081810   -0.361149
H      5.636713    2.027097   -1.287339
H      7.991049    2.565595    2.195589
H     -3.273144   -0.353116    3.344988
H     -0.214216   -1.535207   -2.974507
H     -1.900672   -1.973849   -3.353508
H     -1.410464    0.056521   -4.544082
H     -0.486048    0.743027   -3.195027
H     -5.136286   -2.086061   -0.798642
H     -2.391153    1.449036   -1.075452
H     -4.036291    1.169666   -1.640253
H     -3.528241   -1.230970   -2.030226
H     -1.389161   -2.196767   -0.985571
H     -0.491433    0.741634   -1.145347
H      4.208403    3.385622    2.989452
