36

C     -1.742587   -1.527896    0.133909
C     -3.944097   -0.551132   -0.239345
C     -2.437008    0.499539    1.355594
C      4.675142   -1.247876    1.272549
C      4.534865    0.086716    0.949932
C      3.712666   -2.114359    0.809864
C      3.456781    0.501496    0.189682
C      2.633737   -1.707516    0.050461
C      1.399726    0.185236   -1.067425
C      2.492932   -0.375509   -0.272042
C     -0.626701    1.085515   -1.205690
C     -2.028217    0.634909   -1.113515
C     -1.070675    2.485118   -0.935902
C     -2.468197   -0.205336    0.017101
N     -2.274202    2.038537   -0.866049
O     -0.444980    3.708489   -0.817601
O      0.304491    0.588587   -0.342805
H     -1.890187   -2.051728   -0.855249
H     -2.303675   -2.119385    0.903450
H     -0.693941   -1.391881    0.394982
H     -4.078943   -0.881289   -1.311274
H     -4.290996   -1.362773    0.410773
H     -4.587375    0.342492   -0.134992
H     -3.290298    1.211941    1.451554
H     -1.462467    0.963581    1.552484
H     -2.603219   -0.264231    2.150901
H      5.515668   -1.601273    1.870522
H      5.295743    0.763918    1.317066
H      3.815237   -3.165689    1.058941
H      3.416154    1.571771   -0.023195
H      1.879185   -2.380462   -0.313376
H      1.810523    0.992457   -1.702157
H      1.052529   -0.623018   -1.771582
H     -0.277146    1.042289   -2.257987
H     -2.515058    0.332709   -2.060683
H     -0.965411    4.536056   -0.540370
