41

C     -0.693717    2.441637    0.671242
C     -2.981129   -1.599635    1.414019
C     -1.592750   -0.460909   -3.131605
C      4.206694    0.567834    0.295379
C      2.262431    1.134795   -1.040734
C     -1.693338    1.325961    0.831937
C     -2.767016   -1.345509   -0.056714
C     -1.726176    0.612445   -2.090321
C      2.834425    0.056751   -0.170800
C      2.043503   -0.159306    1.114875
C      0.685923   -0.650924    0.994695
C      1.217154   -1.862817    1.566314
N      2.373988   -1.410047    1.656638
O      0.560660   -3.093914    1.878796
O      0.124856   -0.754782   -0.278172
Si    -1.427710   -0.072477   -0.356245
H     -0.367849    2.562904   -0.382832
H      0.195316    2.290504    1.294489
H     -1.166315    3.404496    0.964056
H     -2.372472   -2.452520    1.762913
H     -4.052283   -1.919504    1.570304
H     -2.843488   -0.710235    2.038678
H     -0.739621   -0.215718   -3.805177
H     -2.544759   -0.568499   -3.719455
H     -1.383392   -1.415582   -2.619212
H      4.075935    1.585938    0.720097
H      4.959970    0.502970   -0.487369
H      4.520170   -0.072278    1.161387
H      3.090518    1.550271   -1.670528
H      1.449318    0.807674   -1.689042
H      1.960033    1.985880   -0.386063
H     -1.722157    0.999389    1.898475
H     -2.712213    1.790328    0.677135
H     -3.711623   -0.915927   -0.449577
H     -2.549146   -2.295919   -0.566223
H     -2.779664    0.976763   -2.094140
H     -1.073596    1.491545   -2.278623
H      2.999400   -0.865696   -0.727748
H      2.218380    0.734618    1.778069
H     -0.017987   -0.069405    1.651698
H      1.139726   -3.911103    2.059385
