44

C     -2.501287    1.067937    1.707689
C     -0.716467   -0.885808    0.600449
C     -5.373860   -0.673447    0.038144
C      7.288698   -0.093566    0.488355
C     -4.687040   -1.037520   -1.240037
C      6.310440   -0.807156    1.179233
C     -4.363820   -0.393937    1.114807
C      6.893335    0.782547   -0.497676
C     -3.196841   -1.200126   -1.077146
C      4.980098   -0.634889    0.877229
C      2.101508    0.302961   -0.390323
C     -3.367174    0.620603    0.581222
C      5.564188    0.931060   -0.773769
C     -2.621271    0.122940   -0.633337
C      4.577254    0.236941   -0.104795
C      1.095742    0.878162   -1.102405
C     -0.327504    0.813890   -1.161043
C      3.675465    1.486639   -1.540486
N      4.978161    1.721435   -1.683129
N     -1.171930    0.035592   -0.409223
N      3.355331    0.630644   -0.638056
O     -0.884873    1.591534   -2.036917
S      2.067414    1.980589   -2.216128
H     -3.050379    1.889684    2.257108
H     -2.294680    0.317146    2.481320
H     -1.584282    1.582728    1.321994
H     -0.233699   -0.389952    1.451878
H     -1.588438   -1.450509    1.049643
H     -0.076546   -1.705066    0.208332
H     -6.088681   -1.468786    0.354101
H     -5.975736    0.270281   -0.090559
H      8.331150   -0.231514    0.728224
H     -4.873366   -0.249994   -2.007925
H     -5.114227   -1.996335   -1.656018
H      6.606439   -1.498504    1.955943
H     -3.908808   -1.278962    1.558036
H     -4.919060    0.153040    1.929203
H      7.666753    1.328698   -1.024324
H     -3.028846   -1.973008   -0.309751
H     -2.793808   -1.487495   -2.071481
H      4.243285   -1.197926    1.425374
H      1.800208   -0.453861    0.410363
H     -4.002857    1.511177    0.283875
H     -2.789988    0.852133   -1.451578
