50

C      4.010051   -2.837501   -1.816692
C     -2.250710    2.278790    0.254177
C     -4.472645    1.519151   -0.437572
C     -3.656764   -1.197318   -0.428398
C     -2.288988    0.179643   -1.918115
C      3.436474    3.013676    1.884727
C     -1.123485   -0.174586    2.204083
C     -1.138640   -2.622228    0.453991
C      4.545547   -2.046927   -0.912946
C      4.339281    0.010703    0.448110
C      1.420789   -0.849576   -0.052399
C     -3.182718    1.112895    0.237051
C      3.872335   -0.834161   -0.452462
C      2.559962   -0.289083   -0.868245
C      3.319789    1.100098    0.604451
C     -2.613444   -0.087287   -0.483760
O      3.906183    2.333949    0.762772
O      0.268981   -0.197864   -0.416262
O      2.726076    1.075577   -0.655853
Si    -1.109496   -0.733850    0.431782
H      3.051583   -2.588111   -2.229965
H      4.519226   -3.721231   -2.140729
H     -1.175353    2.001129    0.227677
H     -2.469364    3.015274   -0.566479
H     -2.421701    2.840662    1.195908
H     -4.913849    2.346828    0.152413
H     -4.202877    1.854133   -1.466751
H     -5.144079    0.654608   -0.432405
H     -3.116398   -2.157650   -0.520416
H     -4.341294   -1.071323   -1.291381
H     -4.176887   -1.092334    0.544277
H     -1.418848   -0.464248   -2.204865
H     -1.950326    1.237192   -2.065705
H     -3.107713   -0.085447   -2.603314
H      2.325620    3.129288    1.715445
H      3.820881    4.051669    1.929960
H      3.630991    2.487969    2.822349
H     -1.872411   -0.821018    2.741523
H     -0.144508   -0.433983    2.652931
H     -1.378559    0.876330    2.337918
H     -1.089330   -3.022485   -0.563348
H     -0.253167   -2.912002    1.084519
H     -2.032928   -2.938096    1.027522
H      5.519168   -2.309999   -0.500165
H      5.276618   -0.062101    0.976310
H      1.632177   -0.901227    1.012401
H      1.302632   -1.919840   -0.396078
H     -3.412231    0.816667    1.262843
H      2.396099   -0.425508   -1.952403
H      2.578248    0.860750    1.393229
