25

C     -2.341035    0.710354    1.810024
C     -1.412035   -1.201343    0.626410
C      3.543154   -1.154939   -0.040257
C     -1.084212    0.182078    1.137245
C      2.605065   -0.068575   -0.429618
C     -0.785829    1.129725   -0.016656
C      0.373891    0.851801   -0.831513
C     -0.577823    0.547438   -1.863219
N     -1.562487    0.794302   -1.136704
O      3.035596    1.065894   -0.765498
O     -0.503866    0.120322   -3.223020
O      1.230150   -0.220340   -0.450747
H     -2.910594   -0.154742    2.212531
H     -2.977185    1.202254    1.044688
H     -2.088029    1.389070    2.640662
H     -2.001100   -1.130677   -0.332500
H     -2.064372   -1.762271    1.334545
H     -0.493711   -1.799057    0.490680
H      4.187214   -1.486174   -0.876424
H      3.014851   -1.998104    0.401351
H      4.248809   -0.687660    0.707567
H     -0.270725    0.135166    1.870971
H     -0.833149    2.197141    0.328150
H      0.945073    1.783233   -1.096373
H     -1.277650   -0.444898   -3.542294
