27

C     -3.299275    0.476324    0.857070
C     -2.834709   -0.819871    0.853087
C     -2.594353    1.403321    0.118922
C     -1.712026   -1.189130    0.144430
C     -1.469965    1.034010   -0.590959
C      0.204240   -0.611310   -1.372494
C      1.546910   -1.406747    0.585005
C     -0.991422   -0.258627   -0.605790
C      1.488669   -0.504817   -0.642149
C      3.100529    0.816997    0.412789
N      4.042464    1.677176    0.421083
N      1.842673    0.819184   -0.246997
S      3.114444   -0.760739    1.309602
Cl     0.683732    0.000000    0.000000
H     -4.188439    0.774027    1.417007
H     -3.379799   -1.551112    1.427519
H     -2.955020    2.427763    0.117435
H     -1.328653   -2.208029    0.128296
H     -0.970617    1.835274   -1.151428
H      0.301997   -0.038115   -2.322253
H      0.097757   -1.685342   -1.706234
H      0.766423   -1.181202    1.313205
H      1.642636   -2.449617    0.289343
H      2.295441   -0.879081   -1.320190
H      3.981637    2.553819   -0.104906
H      1.298457    1.725843   -0.391906
H     -0.683732    0.000000    0.000000
