50

C      3.020958   -3.688778   -0.867678
C     -3.922677    0.482586   -1.775418
C     -4.395920    0.604332    0.648945
C     -1.370638    1.987648   -1.219438
C     -2.045300    2.120269    1.108707
C      4.496452    1.965993    1.976434
C     -1.558546   -1.614975   -1.152779
C     -1.975944   -1.136552    1.788264
C      3.861474   -2.702086   -0.920548
C      4.592472   -0.394150   -0.554725
C      1.127074   -1.105027   -0.095173
C     -3.591122    1.168187   -0.498591
C      3.625518   -1.369822   -0.448886
C      2.532174   -0.690758    0.200464
C      4.001703    0.838818    0.025682
C     -2.152809    1.238467   -0.144966
O      3.985191    0.813956    1.409830
O      0.335642   -0.060450    0.445112
O      2.653821    0.621705   -0.384592
Si    -1.331828   -0.374078    0.191971
H      3.298059   -4.692011   -1.262253
H      2.037630   -3.640913   -0.464477
H     -3.080164    0.184529   -2.393684
H     -4.513223   -0.441576   -1.526430
H     -4.603793    1.079799   -2.422680
H     -3.876115    0.630064    1.613205
H     -4.686202   -0.434254    0.436041
H     -5.368392    1.166329    0.770989
H     -0.416150    2.300143   -0.745728
H     -1.898236    2.920821   -1.512192
H     -1.125340    1.344930   -2.071054
H     -2.096903    1.536167    2.029089
H     -1.057202    2.621809    1.092732
H     -2.817208    2.915454    1.043247
H      4.427311    1.821466    3.090795
H      3.914986    2.824527    1.632818
H      5.565999    2.071586    1.724077
H     -1.026515   -2.541349   -0.853903
H     -2.614368   -1.879714   -1.263837
H     -1.142710   -1.194818   -2.096677
H     -1.270872   -1.987655    2.019849
H     -1.961404   -0.413993    2.613311
H     -2.950010   -1.609688    1.601060
H      4.852003   -2.950635   -1.383592
H      5.572082   -0.508222   -0.972780
H      0.868194   -2.043212    0.449463
H      0.960978   -1.209703   -1.172890
H     -3.940681    2.238155   -0.605981
H      2.649541   -0.567455    1.301170
H      4.411013    1.754136   -0.402301
