30

C     -0.654532    0.067842   -1.236663
C     -2.144805    0.104904   -0.973530
C      0.017596   -0.731649   -0.172380
C     -2.484100    0.723925    0.344366
C      2.076016   -1.636868    0.715139
C      1.503730   -0.796368   -0.415189
C      3.484334    0.486707   -0.189014
N     -3.908984    0.765348    0.591379
N      4.369380    1.332866   -0.534642
N      2.069946    0.507352   -0.317017
S      3.831105   -1.076769    0.614645
Cl     0.685161    0.000000    0.000000
Cl     0.691598    0.000000    0.000000
H     -0.242071    1.099203   -1.220479
H     -0.442446   -0.438277   -2.210105
H     -2.520564   -0.938692   -1.002956
H     -2.603398    0.685399   -1.798050
H     -0.105370   -0.208769    0.801577
H     -0.423261   -1.750788   -0.061179
H     -2.079472    1.748894    0.459785
H     -2.062065    0.093698    1.181600
H      1.655559   -1.370917    1.683154
H      2.061460   -2.699036    0.456282
H      1.659911   -1.288232   -1.392225
H     -4.429487   -0.019603    0.190484
H     -4.325858    1.703122    0.444412
H      4.167494    2.237595   -0.999802
H      1.529883    1.399115   -0.334702
H     -0.685161    0.000000    0.000000
H     -0.691598    0.000000    0.000000
