27

C      3.919235   -0.721018   -0.102096
C      3.531529   -0.329051    1.159692
C     -0.019590    0.471463    0.834585
C      1.695785   -0.339223   -0.835759
C     -1.240174   -0.965258   -0.743479
C      1.307509    0.047622    0.404544
C     -1.091602    0.424571   -0.250158
C     -3.477267    0.277220    0.040558
N     -4.690901    0.680997   -0.000004
N      2.981843   -0.713283   -1.065835
N      2.266667    0.037775    1.381874
N     -2.274554    0.949613    0.319191
S     -2.969871   -1.410080   -0.280077
Cl     0.683249    0.000000    0.000000
Cl     0.692388    0.000000    0.000000
H      4.948155   -1.015805   -0.266976
H      4.229800   -0.306372    1.998658
H      0.064504    1.521487    1.213917
H     -0.424324   -0.115311    1.689749
H      0.965658   -0.336193   -1.619672
H     -1.275787   -1.041753   -1.873121
H     -0.535355   -1.695894   -0.332063
H     -0.705784    1.085310   -1.071391
H     -4.930419    1.669217    0.193964
H     -2.275055    1.823966    0.940191
H     -0.683249    0.000000    0.000000
H     -0.692388    0.000000    0.000000
