28

C     -1.795010    0.431830   -1.483143
C     -1.943600   -0.260358    0.759784
C     -2.968939    1.126689   -1.354360
C     -3.130676    0.453279    0.859193
C     -0.004746   -1.043032   -0.540673
C      2.406307   -1.211213   -0.470868
C     -1.253572   -0.284319   -0.412662
C      1.241424   -0.248029   -0.289227
C      2.548075    0.705512    1.462553
N      2.839401    1.603864    2.329111
N     -3.636705    1.137326   -0.182769
N      1.258686    0.266718    1.027761
S      3.688796   -0.314272    0.493669
Cl     0.691171    0.000000    0.000000
Cl     0.686059    0.000000    0.000000
H     -1.255116    0.421654   -2.425819
H     -1.640370   -0.780306    1.671540
H     -3.341951    1.668132   -2.229135
H     -3.699501    0.486747    1.787528
H      0.056738   -1.449633   -1.578164
H      0.024041   -1.932194    0.142141
H      2.756266   -1.229595   -1.521753
H      2.207034   -2.203843   -0.046076
H      1.365423    0.521437   -1.083476
H      3.851563    1.783027    2.511518
H      0.426432    0.350577    1.683973
H     -0.691171    0.000000    0.000000
H     -0.686059    0.000000    0.000000
