30

C     -1.757567   -1.929812    1.222961
C     -0.676687   -1.061288    1.407705
C     -2.757788   -1.608038    0.334008
C     -1.615624    0.410257   -0.173117
C      0.565704    1.039185    0.900417
C      2.748554    1.867286    0.272648
C     -0.582277    0.124635    0.715127
C     -2.686398   -0.427078   -0.370573
C      1.683110    0.836515   -0.094711
C     -3.764048   -0.085427   -1.324842
C      3.517278   -0.623726   -0.529055
N      4.052762   -1.694279   -0.997591
N      2.225230   -0.462615    0.044036
O     -4.736613   -0.823352   -1.518573
O     -3.673867    1.109837   -2.025767
S      4.224484    1.034933   -0.440701
Cl     0.687960    0.000000    0.000000
H     -1.830875   -2.853303    1.761975
H      0.052079   -1.394897    2.131520
H     -3.597408   -2.261036    0.176672
H     -1.558903    1.330536   -0.721431
H      0.933668    0.877459    1.953254
H      0.227102    2.116675    0.914646
H      2.612964    2.817197   -0.253057
H      2.819818    1.941110    1.356413
H      1.315949    1.024368   -1.140702
H      5.019218   -1.642810   -1.386680
H      1.752396   -1.282641    0.519434
H     -4.512260    1.620307   -2.276135
H     -0.687960    0.000000    0.000000
