28

C      1.629334    0.701818   -1.081686
C      1.348033   -0.606584    0.837136
C      2.762832    1.272984   -0.545612
C      2.488230   -0.035370    1.382399
C     -0.319003   -0.876866   -0.966411
C     -2.679743   -1.104896   -1.426439
C      0.882011   -0.255156   -0.414152
C     -1.612021   -0.235075   -0.736125
C      3.221362    0.916445    0.704854
C     -3.332334    0.248252    0.833291
N     -3.927179    0.873291    1.765041
N     -1.977449   -0.132968    0.644362
O      4.368054    1.493967    1.247866
S     -4.172818   -0.371906   -0.636513
Cl     0.689337    0.000000    0.000000
H      1.273539    0.984234   -2.062128
H      0.810352   -1.363662    1.429442
H      3.330246    2.022511   -1.092795
H      2.857041   -0.312775    2.371688
H     -0.179662   -1.021481   -2.078524
H     -0.366440   -1.923608   -0.567150
H     -2.521084   -2.129589   -1.098289
H     -2.664956   -0.929978   -2.499095
H     -1.747162    0.766600   -1.188547
H     -3.436660    1.230600    2.615282
H     -1.326505   -0.314195    1.452465
H      5.291983    1.103406    1.109638
H     -0.689337    0.000000    0.000000
