30

C     -1.636689    1.047708   -2.120931
C     -0.580370    1.270566   -1.245450
C     -2.673611    0.214289   -1.799917
C     -1.602759   -0.185375    0.288814
C      0.519968    0.810845    0.979792
C      2.671402    0.076971    2.016250
C     -0.533234    0.662636   -0.020240
C     -2.648698   -0.404281   -0.581226
C      1.625016   -0.175880    0.916996
C     -3.734501   -1.303737   -0.193598
C      3.453390   -0.999601   -0.341830
N      3.960876   -1.643224   -1.324969
N      2.344106   -0.092821   -0.337493
O     -4.695239   -1.514761   -0.973838
O     -3.724203   -1.937343    1.035999
S      3.991248   -1.038854    1.369860
Cl     0.691482    0.000000    0.000000
H     -1.657456    1.541829   -3.095507
H      0.211334    1.928263   -1.521456
H     -3.512497    0.022848   -2.467435
H     -1.617856   -0.689963    1.239241
H      0.906191    1.857966    0.957861
H      0.048665    0.717947    2.000132
H      3.013666    1.107062    1.958972
H      2.295321   -0.262177    2.976086
H      1.305809   -1.223397    1.072365
H      4.773978   -2.266094   -1.148891
H      2.105583    0.542702   -1.162227
H     -4.609440   -2.108534    1.522643
H     -0.691482    0.000000    0.000000
