33

C     -3.308821    0.691583   -0.418570
C     -2.914925    0.356483    1.017239
C     -2.098297    0.793212   -1.292764
C     -1.766186   -0.605197    0.947721
C     -0.835041    1.111501   -0.528746
C      0.438468   -0.980327   -0.008073
C      2.546473   -1.716605   -0.964766
C     -0.481213    0.085499    0.493792
C      1.749122   -0.490141   -0.495363
C      3.851152    0.379190    0.150488
N      4.657549    1.288301    0.499639
N      2.502483    0.149597    0.535668
S      4.221698   -0.946261   -0.996326
Cl     0.691288    0.000000    0.000000
H     -3.927712    1.617528   -0.417272
H     -3.962096   -0.113141   -0.819033
H     -2.699026    1.266889    1.608710
H     -3.754855   -0.158651    1.518235
H     -1.962415   -0.116531   -1.916204
H     -2.267771    1.669749   -1.981064
H     -1.603552   -1.159497    1.895244
H     -2.001382   -1.351719    0.160109
H     -1.019338    2.084371   -0.010826
H     -0.039708    1.286578   -1.285637
H     -0.072805   -1.500728   -0.863117
H      0.614440   -1.693795    0.819973
H      2.230593   -2.008370   -1.965083
H      2.559182   -2.505580   -0.211597
H     -0.078890    0.590634    1.392357
H      1.695926    0.176255   -1.371614
H      5.635885    1.377698    0.162302
H      2.091061    0.421476    1.481883
H     -0.691288    0.000000    0.000000
