35

C     -3.972542   -0.100798   -1.820681
C     -5.293707   -0.903398    0.143868
C      5.576834   -0.574612   -0.990516
C      5.044947   -1.228236    0.088851
C      3.481342    0.573950   -1.313865
C     -1.386663    2.028686    0.785004
C      1.774163   -0.920474    1.408933
C      4.793585    0.324502   -1.688692
C      2.960233   -0.085786   -0.232589
C     -0.676582    0.718810    0.667298
C     -1.955206    0.946426   -0.068688
C      1.713922   -0.036154    0.353538
C      3.743185   -0.992891    0.475559
C      0.602166    0.789603   -0.083929
C     -3.143581    0.271804    0.485264
F      5.291546    0.987700   -2.762264
N      2.992524   -1.484340    1.469219
N     -4.123332   -0.236662   -0.390268
O      0.725415    1.542495   -1.073334
O     -3.285498    0.149406    1.717219
H     -4.959421   -0.271323   -2.285430
H     -3.250339   -0.805922   -2.241549
H     -3.716126    0.968429   -2.028893
H     -5.540225   -0.507464    1.150920
H     -5.126248   -1.990940    0.274542
H     -6.182993   -0.762024   -0.490206
H      6.580170   -0.722471   -1.329777
H      5.656691   -1.923885    0.626053
H      2.908857    1.275032   -1.878136
H     -1.018183    2.918829    0.249300
H     -1.902274    2.295658    1.741597
H      0.935832   -1.116306    2.084858
H     -0.693158    0.029716    1.522911
H     -1.869546    1.032047   -1.172704
H      3.314212   -2.189405    2.168563
