23

C     -2.468447    1.084888   -0.520179
C      0.618645   -2.504933    1.260595
C     -0.737120   -2.263558    1.332618
C      1.399289   -1.597257    0.549560
C     -1.280784   -1.151169    0.711814
C      0.840521   -0.504253   -0.056330
C     -0.511014   -0.259304    0.012690
C      1.687050    0.460729   -0.814997
C      1.345454    1.856625   -0.490813
O      1.551337    0.249716   -2.168483
O      0.994289    2.652267   -1.396778
O      1.401505    2.323937    0.805776
O     -1.088870    0.843790   -0.596493
H     -2.708349    1.464348    0.493639
H     -2.809684    1.795621   -1.297403
H     -3.044273    0.145874   -0.699085
H      1.027799   -3.373847    1.748112
H     -1.341592   -2.961405    1.879963
H      2.470091   -1.783877    0.490113
H     -2.363654   -1.037670    0.820052
H      2.760352    0.272788   -0.551379
H      0.992272    0.971148   -2.552344
H      1.265182    3.315539    1.039352
