55

C     -5.666213   -1.772276    0.967886
C     -0.835713   -3.838236   -0.955412
C     -1.151949    3.669917   -2.165592
C      2.337953   -0.447572    3.754231
C      3.181961   -1.446611    4.177632
C     -0.973355    3.820054   -0.710247
C     -1.151160    2.307869   -2.733418
C      2.438319   -0.039223    2.416342
C      4.102608   -2.046685    3.352720
C     -0.439324    2.656110    0.039076
C     -2.794817    0.793930   -0.805080
C     -3.717134   -0.054924   -0.231632
C      4.453119   -0.843987   -0.506382
C      5.252279   -1.831080    0.014695
C     -1.369862   -1.043276   -1.168811
C     -1.588879    0.324169   -1.292364
C     -0.577994    1.226674   -1.901103
C      3.347221   -0.620060    1.562981
C      3.473693   -0.215526    0.268672
C      4.180696   -1.631419    2.053929
C      0.366645    1.809406   -0.873091
C     -3.490906   -1.416942   -0.112109
C     -2.290855   -1.895342   -0.595912
C      2.594034    0.733064   -0.356253
N      5.108467   -2.214389    1.284726
N      1.184707    0.812301   -0.221515
O      3.068737    1.638767   -1.147877
O     -4.435217   -2.260047    0.470982
O     -2.038956   -3.259649   -0.487821
H     -6.331929   -2.602003    1.280026
H     -6.185956   -1.240928    0.122440
H     -5.485607   -1.059857    1.800562
H     -0.950435   -4.927046   -1.148434
H     -0.522866   -3.400283   -1.935785
H     -0.027281   -3.646832   -0.235634
H     -0.349578    4.269951   -2.679154
H     -2.099603    4.210059   -2.458958
H      1.613682    0.027320    4.400790
H      3.127218   -1.788803    5.220456
H     -0.318689    4.706319   -0.470126
H     -1.955393    4.093275   -0.215004
H     -0.644680    2.280241   -3.736329
H     -2.217605    2.016341   -2.967116
H      1.801977    0.778669    2.071704
H      4.755077   -2.840031    3.736762
H     -1.220911    2.101923    0.598519
H      0.249342    3.030296    0.859812
H     -3.065649    1.842394   -0.861290
H     -4.676676    0.319370    0.156437
H      4.535560   -0.502677   -1.535507
H      5.988090   -2.291321   -0.598122
H     -0.413907   -1.400220   -1.558136
H      0.088896    0.537682   -2.509776
H      1.053589    2.471451   -1.448579
H      0.685225    0.099693    0.343052
