51

C      0.803098    1.555478    0.374893
C      5.993149    1.369415   -1.714431
C     -5.816517   -0.720624    0.503830
C     -5.327473    1.425765   -0.569061
C     -5.429458   -0.685222   -1.936870
C      0.222504   -1.721155    0.464726
C     -1.109601   -0.977084    0.508496
C      5.710877    0.641847    0.713940
C      4.608076   -0.315003    2.779877
C      2.417331   -1.070827    2.364280
C     -0.176940    0.221755   -1.505628
C      0.993842    0.429976   -0.577727
C      5.222008    0.777689   -0.579869
C      4.711669    0.059756    1.462853
C      3.455321   -0.889343    3.258227
C      1.373096   -0.893722    0.057423
C      2.454944   -0.722976    1.048452
C      3.649137   -0.139849    0.602141
C     -2.608505    0.126622   -1.118723
C     -5.022923   -0.052819   -0.625379
F      3.325396   -1.267447    4.543510
N     -1.302172   -0.207778   -0.703546
O     -2.849577    0.793118   -2.153771
O      4.014777    0.303135   -0.579308
O     -3.678719   -0.297301   -0.352688
H      0.968210    2.510859   -0.209956
H     -0.219119    1.672038    0.784001
H      1.605320    1.540886    1.124760
H      5.829534    0.756978   -2.616131
H      7.082426    1.393573   -1.450286
H      5.665164    2.397240   -1.925277
H     -6.849657   -0.371145    0.540662
H     -5.796185   -1.819101    0.300136
H     -5.332615   -0.538375    1.476271
H     -5.139254    1.928060   -1.548284
H     -6.388374    1.546211   -0.265793
H     -4.697758    1.859799    0.215364
H     -4.527776   -0.865990   -2.567959
H     -5.901978   -1.656233   -1.723006
H     -6.167554   -0.021386   -2.435319
H      0.018167   -2.552173   -0.288189
H      0.293825   -2.275009    1.413019
H     -1.932987   -1.740888    0.522349
H     -1.229919   -0.397533    1.440005
H      6.677525    0.931481    1.073176
H      5.451149   -0.152909    3.443483
H      1.524973   -1.515681    2.754908
H      0.105133   -0.658957   -2.143472
H     -0.399318    1.074243   -2.148497
H      1.844185    0.714251   -1.236801
H      1.883542   -1.449688   -0.794810
