51

C      0.481651    0.585428   -1.866227
C      5.513016    3.037400    0.229793
C     -5.532363    1.181886   -0.473993
C     -5.991242   -1.159472   -0.029497
C     -5.277661    0.344591    1.819698
C      0.370324   -1.651619   -0.227947
C     -1.036076   -1.196380   -0.318971
C      5.889876    0.537024   -0.173638
C      5.326603   -1.896023   -0.469099
C      2.964224   -2.345301   -0.285328
C     -0.323551    1.140853    0.370402
C      0.917781    0.712264   -0.432569
C      5.085227    1.627244    0.069915
C      5.045202   -0.553666   -0.243302
C      4.262497   -2.768741   -0.484469
C      1.347969   -0.570981    0.171226
C      2.720722   -1.004905   -0.064046
C      3.766412   -0.095539   -0.041473
C     -2.688176    0.489473    0.345971
C     -5.104422    0.011098    0.362820
F      4.537544   -4.083249   -0.704977
N     -1.324879    0.123358    0.124307
O     -3.011005    1.653839    0.758528
O      3.859307    1.210766    0.138530
O     -3.756113   -0.371370    0.136941
H      1.077912    1.331671   -2.444860
H     -0.590334    0.906825   -2.005688
H      0.656374   -0.396705   -2.316787
H      6.430461    3.218873   -0.346909
H      4.708638    3.708138   -0.148134
H      5.669806    3.255651    1.304213
H     -5.139847    1.162995   -1.494773
H     -6.644531    1.141629   -0.551460
H     -5.304580    2.140434    0.067582
H     -6.384988   -1.639421    0.899462
H     -6.840146   -0.834492   -0.650696
H     -5.424152   -1.909159   -0.613982
H     -4.385831    0.065718    2.434706
H     -5.553670    1.401389    2.012787
H     -6.114115   -0.292787    2.227860
H      0.441148   -2.464998    0.518082
H      0.756393   -2.075014   -1.192208
H     -1.367473   -1.272803   -1.391098
H     -1.721894   -1.909368    0.223614
H      6.964301    0.516996   -0.291182
H      6.349245   -2.211619   -0.624521
H      2.202432   -3.116423   -0.310965
H     -0.012200    1.075723    1.435234
H     -0.672413    2.136377    0.073183
H      1.624309    1.553023   -0.283260
H      1.232290   -0.450629    1.289488
