48

C     -1.467205    0.126562   -1.355774
C      5.449846   -0.223587    0.994910
C      5.209718    1.520624   -0.664909
C      5.046420   -0.800318   -1.362801
C     -0.902492   -0.935565    1.736760
C     -5.897895    1.772219    0.019651
C      0.158557   -1.569927    0.920892
C     -5.010449    2.716569    0.456254
C     -5.573426   -0.755479   -0.259182
C     -3.366688   -1.492139    0.359773
C      0.525325    0.705228   -0.047897
C     -0.955953    0.781417   -0.078469
C     -5.243872    0.553356    0.048750
C     -4.637680   -1.779809   -0.104955
C     -1.650486    0.198034    1.140669
C     -3.024738   -0.202734    0.668765
C     -3.979778    0.808145    0.505754
C      2.460811   -0.753804    0.318555
C      4.701409    0.126803   -0.245078
F     -4.991465   -3.044033   -0.419681
N      1.052413   -0.553700    0.408802
O      2.970017   -1.876636    0.651539
O     -3.874860    2.096011    0.736744
O      3.311852    0.218818   -0.112887
H     -0.769994    0.450179   -2.173608
H     -1.423606   -0.965985   -1.348084
H     -2.469297    0.511979   -1.638661
H      5.155917    0.378062    1.869918
H      6.524756   -0.001455    0.816006
H      5.430511   -1.319622    1.220252
H      4.612383    2.254755   -0.057036
H      6.272591    1.599805   -0.384404
H      5.034674    1.683604   -1.736825
H      4.725673   -1.822708   -1.109995
H      4.471459   -0.460830   -2.263955
H      6.144437   -0.732852   -1.602235
H     -0.403001   -0.627911    2.712821
H     -1.614646   -1.736935    2.092760
H     -6.919386    1.870607   -0.299009
H      0.763137   -2.208906    1.646258
H     -0.221655   -2.276433    0.192341
H     -5.246200    3.783549    0.539943
H     -6.575743   -0.911372   -0.613388
H     -2.639591   -2.271582    0.470992
H      1.013561    1.560172    0.450689
H      0.869622    0.783620   -1.129603
H     -1.253017    1.845166   -0.145139
H     -1.791966    0.979036    1.898614
