30

C      0.840985   -0.542870    0.216921
C      2.002281    0.406626   -0.112594
C     -0.354492    0.002376   -0.527653
C      3.266499   -0.043701    0.584818
C     -1.928450   -0.852427    1.115484
C     -1.597316   -0.828247   -0.307138
C     -3.661024    0.374110   -0.489015
N      4.306532    0.901072    0.222491
N     -4.516619    1.222621   -0.954601
N     -2.635892   -0.332774   -1.112455
S     -3.592600   -0.136283    1.235515
Cl     0.690613    0.000000    0.000000
Cl     0.691885    0.000000    0.000000
H      0.699559   -0.590113    1.299773
H      1.091174   -1.563731   -0.130813
H      2.169294    0.419998   -1.205746
H      1.766955    1.424545    0.259208
H     -0.514982    1.035721   -0.158058
H     -0.072528    0.010474   -1.610443
H      3.132199   -0.017301    1.682422
H      3.577522   -1.035214    0.204567
H     -1.259482   -0.169324    1.712456
H     -1.862973   -1.838397    1.613918
H     -1.378412   -1.889585   -0.630022
H      4.383983    1.038555   -0.797081
H      3.995963    1.831349    0.628640
H     -5.227080    1.668619   -0.355105
H     -2.631098   -0.496100   -2.166018
H     -0.690613    0.000000    0.000000
H     -0.691885    0.000000    0.000000
