35

C     -5.216734    0.075724   -0.537636
C     -3.139260   -0.332467   -1.849997
C      5.118920    1.380812   -1.216107
C      4.526649    0.211269   -1.617771
C      3.268575    1.792991    0.263056
C     -1.047299   -1.551002    1.576875
C      1.426076   -1.212722   -0.560967
C      4.494001    2.170719   -0.279008
C      2.678422    0.616383   -0.144747
C     -0.709621   -0.124862    1.567685
C     -1.612032   -0.662684    0.513743
C      1.478058   -0.060945    0.179673
C      3.293440   -0.183923   -1.082396
C      0.553832    0.468534    1.134945
C     -3.084433   -0.365832    0.607862
F      5.057468    3.348805    0.147118
N      2.545510   -1.266446   -1.324337
N     -3.805428   -0.209244   -0.582340
O      0.828079    1.601598    1.706828
O     -3.647607   -0.262233    1.738274
H     -5.351297    1.152220   -0.252081
H     -5.720488   -0.097678   -1.515900
H     -5.768443   -0.530204    0.202759
H     -2.737036   -1.382636   -1.905037
H     -3.836262   -0.189510   -2.699788
H     -2.252256    0.347180   -1.936628
H      6.067294    1.731488   -1.596375
H      5.003074   -0.412787   -2.346890
H      2.777560    2.401146    0.991111
H     -0.348577   -2.350176    1.368049
H     -1.773269   -1.879103    2.402533
H      0.670166   -1.963045   -0.574687
H     -1.273809    0.505775    2.353026
H     -1.231673   -0.730151   -0.514111
H      2.768402   -2.036992   -1.987218
