39

C     -7.042622    1.106918    0.460135
C      2.961580   -1.119321   -1.714699
C      1.609786   -0.860403   -1.568164
C      5.325834   -0.784511   -0.885724
C      6.092986    0.430021   -0.430611
C      2.012729    0.482391    0.348638
C     -3.702342   -0.522478    0.635785
C     -1.250549   -0.703908    0.206390
C      4.388291    0.773380    1.120707
C     -5.954238    0.107438    0.313108
C      3.855082   -0.573992   -0.822123
C      3.358860    0.222713    0.200304
C      1.116764   -0.063886   -0.545532
C     -2.401371    0.234085    0.480117
C     -1.048915    1.259692   -0.958981
N     -4.779009    0.412298    0.757954
N     -0.295170    0.166035   -0.449834
O     -6.172822   -1.132619   -0.285949
O     -0.567629    2.255162   -1.581487
O      5.400044    1.298578    0.358225
O     -2.405661    1.060469   -0.662901
H     -7.943252    0.750622   -0.087519
H     -7.291077    1.250559    1.539833
H     -6.770989    2.085233    0.031185
H      3.348462   -1.742433   -2.513142
H      0.902121   -1.285267   -2.266671
H      5.573509   -1.044362   -1.936730
H      5.598528   -1.668700   -0.269182
H      6.385695    0.994320   -1.365688
H      7.070918    0.089110   -0.006479
H      1.650544    1.119306    1.171873
H     -3.815449   -1.241295   -0.199284
H     -3.621125   -1.107265    1.572720
H     -1.539937   -1.481959   -0.520983
H     -0.836538   -1.138471    1.145460
H      4.694503   -0.058211    1.778850
H      3.985042    1.565177    1.777850
H     -2.186689    0.807001    1.394361
H     -5.705893   -1.941426    0.104254
