48

C      2.105379    1.792700   -0.713712
C     -4.911098    1.311298    1.362850
C     -5.545335   -1.041783    1.226254
C     -5.401241    0.312695   -0.829284
C      0.631126   -1.483052   -0.509306
C      5.940660    0.597223    1.360486
C     -0.777828   -1.283853    0.007166
C      4.993014    1.344156    2.025295
C      5.666299   -1.223123   -0.335170
C      3.361789   -1.689861   -0.835493
C     -0.183661    0.855522   -1.088509
C      1.022570    0.889282   -0.163581
C      5.237016   -0.260316    0.544608
C      4.722551   -1.938321   -1.025668
C      1.495491   -0.466510    0.236178
C      2.924298   -0.725099    0.045634
C      3.892029   -0.017779    0.729907
C     -2.532368    0.481596   -0.273131
C     -4.791706    0.075846    0.529408
F      5.154821   -2.893906   -1.898661
N     -1.198215    0.039518   -0.451032
O     -2.894701    1.608584   -0.662796
O      3.811170    0.954311    1.629036
O     -3.451568   -0.345580    0.341643
H      1.641917    2.341280   -1.587878
H      2.958390    1.256846   -1.147835
H      2.384877    2.614446   -0.015959
H     -4.760945    2.248124    0.780027
H     -5.941976    1.360628    1.800193
H     -4.151966    1.278185    2.173532
H     -6.334014   -1.461311    0.561663
H     -4.872596   -1.907493    1.463107
H     -5.996026   -0.709413    2.188213
H     -5.238347    1.346531   -1.160123
H     -4.882667   -0.357966   -1.554103
H     -6.484886    0.096117   -0.834890
H      0.612527   -1.337550   -1.589727
H      0.952465   -2.520524   -0.223649
H      7.018139    0.634467    1.426930
H     -1.462952   -2.030191   -0.457233
H     -0.817812   -1.328774    1.115017
H      5.262900    2.109645    2.743083
H      6.736551   -1.427268   -0.492619
H      2.689498   -2.285344   -1.407036
H      0.061811    0.541603   -2.112398
H     -0.568569    1.895424   -1.180541
H      0.647164    1.416202    0.763891
H      1.276029   -0.667211    1.327077
