41

C     -6.431288    1.282610   -0.551379
C      2.949991   -1.747243    1.485820
C      1.561630   -1.729648    1.520257
C      3.674214    1.647742    0.002569
C      4.437953    1.149431   -1.216226
C      1.547577    0.449178    0.585396
C     -3.784212    0.508987   -0.252746
C     -1.449486    0.512670    0.719588
C      5.088955   -0.619759    0.928247
C     -5.970065   -0.059525   -0.962394
C      2.926853    0.458042    0.539883
C      3.599267   -0.646940    0.993693
C      0.835408   -0.647237    1.077379
C     -2.530663   -0.286900   -0.019051
C     -1.504755   -1.623869    1.464267
N     -4.754264   -0.388230   -0.815205
N     -0.579554   -0.611258    1.095403
O     -6.858110   -0.989785   -1.518780
O     -1.246413   -2.609109    2.202035
O      6.943379    0.150318   -0.880276
O      5.183936   -1.411904   -1.582191
O     -2.754168   -1.352318    0.877296
S      5.502696   -0.180601   -0.764308
H     -7.547428    1.303912   -0.699996
H     -6.175575    1.490537    0.503372
H     -6.021609    2.029559   -1.268592
H      3.455995   -2.641496    1.853461
H      1.037764   -2.607422    1.912557
H      2.953669    2.399777   -0.317752
H      4.420425    2.038235    0.738494
H      3.673323    0.763724   -1.936923
H      4.988091    2.019647   -1.624014
H      1.029555    1.338923    0.219389
H     -3.566222    1.320908   -0.974296
H     -4.126089    0.948228    0.709346
H     -0.969268    1.248059    0.084060
H     -1.954684    0.944974    1.605448
H      5.422252    0.204959    1.579068
H      5.533192   -1.580950    1.214781
H     -2.057861   -0.619120   -0.961043
H     -6.484412   -1.857105   -1.902823
