31

C     -3.316158   -0.618982    0.171854
C     -2.544112   -0.354623   -1.074078
C     -2.667211   -0.164640    1.425511
C     -1.133988   -0.923360   -0.865542
C     -1.197264   -0.254773    1.480805
C      0.955059   -0.358371    0.375123
C      1.808557    1.178556   -1.419497
C     -0.488407   -0.037874    0.166920
C      1.809708   -0.216033   -0.848800
C      3.827719    0.428311    0.244228
N      4.766292    0.369785    1.098426
N      3.152224   -0.573911   -0.500243
S      3.033671    1.965773   -0.293810
H     -3.613003   -1.706572    0.187904
H     -4.303037   -0.078606    0.067534
H     -3.052439   -0.875245   -1.912967
H     -2.412655    0.722745   -1.251229
H     -3.083336   -0.796591    2.266305
H     -3.037982    0.873041    1.674616
H     -0.594032   -0.990784   -1.810117
H     -1.298425   -1.917326   -0.381403
H     -0.816634    0.545654    2.175759
H     -0.802615   -1.211399    1.907945
H      1.018410   -1.419113    0.696596
H      1.351964    0.243572    1.208569
H      0.874976    1.712285   -1.275525
H      2.148977    1.186586   -2.453775
H     -0.656440    1.038669   -0.101924
H      1.431511   -0.883483   -1.620531
H      5.231578   -0.492183    1.418436
H      3.607095   -1.479496   -0.757092
