50

C     -7.617669    1.167365   -0.015228
C     -6.844306    0.450312    0.874955
C     -7.442444    0.984634   -1.374687
C     -5.920263   -0.425563    0.394433
C     -6.512894    0.102424   -1.851597
C      1.599643    1.707166   -0.065580
C      2.965842    1.430963   -0.090028
C      0.103882   -1.766707   -0.058584
C     -1.081870   -1.239473    0.768021
C      2.444342   -0.871590   -0.094274
C     -0.787671    1.069671   -0.032254
C      5.476185   -1.105533    0.814528
C      6.523443    0.885702    1.816549
C     -4.724926   -1.586784   -1.417065
C     -5.744607   -0.609432   -0.961350
C      1.085134   -0.630133   -0.070166
C      0.679570    0.685428   -0.056242
C      3.398537    0.119194   -0.104354
C      6.784147   -0.330743    0.960854
C     -2.796623   -0.278308   -0.720428
C      5.756792    0.186681   -1.043971
N     -1.585462   -0.130536   -0.014190
N      4.773874   -0.232739   -0.121710
O      7.547228    1.799548    1.827462
O     -3.272836    0.672517   -1.403999
O      5.580415    0.601623   -2.209211
O     -3.528952   -1.461101   -0.707778
O      6.990397    0.050775   -0.405113
H     -8.354970    1.860841    0.379749
H     -6.957826    0.572084    1.943522
H     -8.049662    1.547581   -2.074062
H     -5.300421   -0.996770    1.099749
H     -6.390124   -0.026967   -2.911404
H      1.309177    2.758370   -0.054872
H      3.664220    2.237318   -0.098602
H      0.485500   -2.662876    0.434381
H     -0.304988   -1.947227   -1.068934
H     -0.706423   -0.907182    1.769175
H     -1.839185   -2.027908    0.849013
H      2.736788   -1.933523   -0.104548
H     -1.000435    1.697945   -0.894442
H     -0.981170    1.627457    0.928889
H      5.617056   -2.119565    0.441559
H      4.913967   -1.095817    1.777344
H      6.268282    0.564782    2.828434
H      5.617951    1.389800    1.401290
H     -5.156522   -2.609854   -1.213531
H     -4.526508   -1.461415   -2.487026
H      7.573263   -0.975333    1.336400
H      7.533123    2.434976    1.078925
