28

C      2.755400    2.060320    0.091264
C     -3.851311   -0.491516    0.163259
C     -3.295322    0.667633   -0.321075
C     -3.053154   -1.294805    0.942052
C     -1.997087    1.001998   -0.034983
C     -1.743523   -0.961556    1.233338
C      0.202131    0.611287    1.041341
C      2.563037    0.597697    0.219380
C     -1.185377    0.192676    0.752201
C      1.104801    0.176300   -0.041248
C      2.080228   -1.599860   -1.227999
N      2.058299   -2.598705   -1.989588
N      1.155818   -1.257040   -0.209662
S      3.303836   -0.306053   -1.212229
H      2.049998    2.441696   -0.680458
H      2.600268    2.528331    1.082075
H      3.818660    2.264622   -0.177237
H     -4.871245   -0.745700   -0.066799
H     -3.892679    1.330040   -0.940292
H     -3.482510   -2.216338    1.331842
H     -1.553392    1.914328   -0.413920
H     -1.181782   -1.642370    1.862634
H      0.226757    1.717820    1.181569
H      0.500994    0.143607    2.023735
H      2.971455    0.129503    1.113512
H      0.845322    0.595997   -1.039460
H      1.290534   -3.300311   -1.913455
H      0.579844   -1.959601    0.352788
