62

C     -3.316202   -1.110095   -1.644738
C     -7.994780   -0.972223    0.586652
C      6.877633   -0.443367    0.056622
C      7.231190   -1.347715    1.187537
C      2.292435   -0.166967    0.090984
C      5.077386   -0.614092    1.544685
C      1.276013    1.410496   -1.359302
C     -3.078535   -1.017850   -0.172639
C     -6.583536   -0.826809    1.094646
C      5.520007    0.179516    0.359130
C      1.001847    0.738363   -0.032671
C      3.301473    0.756348   -0.544470
C     -5.596144   -0.528002   -0.011895
C     -4.211940   -0.396205    0.569022
C     -2.684109    1.227758    0.054995
C      4.627042    0.132537   -0.831575
C     -2.014949    0.103178   -0.019133
C     -5.492764    0.961841   -0.216923
C     -2.179061    2.579271    0.205511
N      6.304004   -1.024112    2.228208
N      2.574270    1.003005   -1.822238
N     -4.105576    0.958779   -0.022104
O     -6.188285   -1.931679    1.850088
O      4.533771   -1.091846   -1.463225
O     -6.375963    1.810836   -0.465800
O     -3.040779    3.545974    0.238862
O     -0.863500    2.929788    0.318442
S     -0.345112   -0.329441    0.026825
Cl     0.687421    0.000000    0.000000
O     -0.004834    0.389995   -0.000000
H     -2.313196   -1.295334   -2.126050
H     -3.964690   -1.946784   -1.929307
H     -3.646038   -0.130604   -2.039292
H     -8.411316   -1.896778    1.046646
H     -8.067585   -1.097631   -0.498969
H     -8.653974   -0.142252    0.907127
H      6.879248   -0.943926   -0.934878
H      7.604890    0.386351   -0.002113
H      8.265635   -1.129469    1.573501
H      7.162428   -2.425993    0.932822
H      2.126613   -1.046942   -0.557966
H      2.448068   -0.386927    1.142210
H      4.513412   -1.511911    1.266429
H      4.481340   -0.040605    2.277175
H      0.512267    1.212371   -2.118824
H      1.374850    2.518498   -1.153614
H     -2.723504   -1.945799    0.265792
H     -6.566298    0.038856    1.788440
H      5.621648    1.232072    0.671997
H      1.128378    1.417104    0.847928
H      3.360769    1.669718    0.062565
H     -5.691290   -1.112086   -0.924536
H     -4.117944   -0.423945    1.652062
H      5.135371    0.811824   -1.602160
H      6.678056   -0.262813    2.830708
H      3.107732    1.802673   -2.257762
H     -6.534720   -1.880231    2.786703
H      4.352245   -1.836751   -0.812234
H     -0.608229    3.830027    0.745816
H     -0.687421    0.000000    0.000000
H      0.804513   -0.193273    0.000000
H     -0.799678   -0.196723   -0.000000
