27

C     -1.124815   -2.075119    1.291047
C     -1.619772   -1.203975    0.171187
C      3.193243   -0.242632    0.374335
C      2.509644    0.293867    1.440355
C      2.485990   -0.639165   -0.746251
C      1.146749    0.450958    1.433477
C      1.114437   -0.474351   -0.737457
C     -1.566338    0.977121   -0.872773
C     -1.134106    2.384063   -1.004625
C     -1.017745    0.206610    0.268624
C      0.425204    0.062487    0.327807
Cl    -1.961802    3.040415   -2.467524
H     -0.988008   -3.088747    0.903856
H     -0.142650   -1.666659    1.624353
H     -1.867964   -2.078496    2.132491
H     -1.409217   -1.637530   -0.837170
H     -2.727034   -1.166181    0.247224
H      4.277145   -0.368530    0.377536
H      3.081076    0.603699    2.321115
H      3.041987   -1.054532   -1.564231
H      0.664325    0.888017    2.322327
H      0.605937   -0.808095   -1.656751
H     -1.318015    0.444580   -1.835554
H     -2.674449    0.951457   -0.807729
H     -0.064012    2.536623   -1.175431
H     -1.538531    3.009567   -0.165455
H     -1.391279    0.654549    1.212559
