42

C      3.425938    0.221465    1.316747
C     -1.360380    4.422175    0.090988
C     -4.094620   -2.678738    0.424858
C     -2.544320    1.965599   -0.505240
C     -3.133410    0.745179   -0.801801
C      3.644860   -1.004334   -0.742567
C      2.608575   -1.933340   -1.378803
C      0.805865    0.884413    0.724916
C     -0.424873   -1.706403    0.110374
C     -0.601169    0.824473    0.181742
C     -1.133901   -0.414013   -0.093919
C      1.522551   -0.194828   -0.095876
C     -1.260621    2.012178   -0.006282
C      1.049875   -1.547968    0.289739
C     -2.438746   -0.425778   -0.599157
N      2.927488    0.003094   -0.011943
O     -0.641460    3.238966    0.302269
O      1.758018   -2.487043   -0.452533
S     -3.200121   -1.988599   -0.981646
Cl     0.686225    0.000000    0.000000
H      2.775467   -0.162329    2.114219
H      3.521561    1.317372    1.465348
H      4.468709   -0.189723    1.423125
H     -2.125957    4.494842    0.893758
H     -1.782714    4.464043   -0.922792
H     -0.644566    5.265306    0.188275
H     -5.126708   -2.283628    0.466717
H     -3.554149   -2.503667    1.380699
H     -4.140178   -3.784862    0.278227
H     -3.082008    2.907029   -0.660056
H     -4.143983    0.722477   -1.193870
H      4.378884   -1.557105   -0.155888
H      4.130422   -0.481704   -1.613911
H      2.120901   -1.474738   -2.242813
H      3.219292   -2.789138   -1.792205
H      1.274637    1.837642    0.463748
H      0.821341    0.654525    1.801838
H     -0.598242   -2.323233   -0.812794
H     -0.911109   -2.265965    0.944267
H      1.215895   -0.005718   -1.155394
H      1.272958   -1.777926    1.357635
H     -0.686225    0.000000    0.000000
