41

C      5.010766    0.629654   -0.685480
C     -0.938590    3.214794   -0.404292
C     -1.045227   -3.027984    1.773780
C      0.221937   -3.135587    1.219319
C     -4.782757    0.203850   -0.014138
C     -4.555899    1.508150   -0.401209
C     -1.891672   -2.014811    1.371514
C     -3.711511   -0.662761    0.240040
C      0.645707   -2.228070    0.260688
C     -3.282879    1.993809   -0.549405
C      4.198916   -0.634281   -0.490529
C     -1.439528   -1.138319    0.420639
C     -2.448253   -0.158422    0.089427
C     -0.179078   -1.207486   -0.158027
C     -2.225836    1.162002   -0.305846
C      0.511803   -0.333946   -1.162437
C      2.776967   -0.190262   -0.295388
C      0.233280    1.110849   -0.951765
N      1.922193   -0.611850   -1.129923
N     -0.944430    1.782531   -0.561437
O      4.643677   -1.379153    0.585424
O      2.509725    0.641290    0.776885
O      1.217822    1.843323   -1.159891
H      4.861705    1.260803    0.218003
H      6.066640    0.379012   -0.829026
H      4.599178    1.184260   -1.535953
H     -1.222525    3.743730   -1.341331
H      0.103500    3.526282   -0.189542
H     -1.542159    3.553512    0.463083
H     -1.306200   -3.770234    2.515438
H      0.896244   -3.933110    1.530925
H     -5.762559   -0.228168    0.116291
H     -5.395854    2.145555   -0.587103
H     -2.845958   -1.929869    1.836114
H     -3.864706   -1.678271    0.501664
H      1.643834   -2.314595   -0.184326
H     -3.058733    3.006066   -0.847662
H      4.325452   -1.239008   -1.403006
H      0.127640   -0.598119   -2.168224
H      4.337196   -1.010856    1.450825
H      1.590176    0.535689    1.218727
