48

C      7.606793    1.461352   -0.058298
C      7.369247    0.094276   -0.191527
C      6.599299    2.375900    0.123884
C      6.071046   -0.375332   -0.140229
C      5.303011    1.887482    0.172935
C     -0.276800   -0.770306   -0.663537
C     -5.506795   -0.917098   -0.082953
C     -5.558655    1.390067   -0.599796
C     -6.782455   -1.061710   -0.591597
C     -6.827905    1.232350   -1.102916
C      1.196391   -0.859984   -1.080398
C     -1.431662   -0.381744    1.526619
C      0.905164    0.219780    1.218019
C      3.428398   -1.242413   -0.025908
C     -0.453445    0.142443    0.507677
C     -4.866348    0.298194   -0.072704
C     -7.473615    0.004992   -1.112806
C      5.042608    0.524505    0.041989
C      1.926926   -1.498211    0.065464
C     -3.521887    0.456312    0.462155
N     -2.748798   -0.586984    1.013457
O     -8.748347   -0.135520   -1.621940
O     -2.973611    1.604453    0.447384
O      1.437449   -1.072087    1.276058
O      3.713540    0.137375    0.104937
H      8.626046    1.818054   -0.099916
H      8.208162   -0.577205   -0.333203
H      6.815655    3.445008    0.225637
H      5.866723   -1.434525   -0.241822
H      4.481904    2.578199    0.315332
H     -0.806825   -0.336819   -1.538981
H     -0.653195   -1.791712   -0.491370
H     -5.020671   -1.791700    0.310298
H     -5.101988    2.358576   -0.614353
H     -7.276750   -2.039057   -0.591069
H     -7.392281    2.064713   -1.520218
H      1.590804    0.116637   -1.373051
H      1.239253   -1.523797   -1.956427
H     -1.002894   -1.272630    2.009705
H     -1.477806    0.401806    2.338716
H      0.737725    0.548334    2.259705
H      1.582457    0.928841    0.718577
H      3.916413   -1.751777    0.830028
H      3.853172   -1.670142   -0.939220
H     -0.685863    1.183256    0.209365
H      1.815576   -2.613390   -0.064380
H     -3.157585   -1.539281    1.045166
H     -9.587579   -0.029484   -1.068311
