34

C      2.416208   -2.225235   -0.469083
C     -2.492413    2.045190   -1.492482
C     -3.341694    0.979227   -1.449631
C      2.106730    2.397851    1.065927
C      3.026768    1.374122    1.155330
C     -1.204495    2.014125   -0.962602
C      0.834487    2.179246    0.560354
C     -2.890130   -0.199081   -0.843133
C      2.692943    0.106796    0.740920
C     -0.822460    0.841614   -0.383402
C      0.518599    0.917301    0.150609
C     -1.631803   -0.283143   -0.305792
C      1.440851   -0.143235    0.235356
C     -1.398722   -1.640889    0.231017
C     -0.037288   -2.144716   -0.082740
N     -1.591079   -1.729302    1.655460
N      1.229310   -1.507053   -0.103917
O     -0.004500   -3.357717   -0.383833
Cl     0.691402    0.000000    0.000000
H      2.919218   -2.697213    0.404680
H      3.131626   -1.598544   -1.055406
H      2.136709   -3.061481   -1.142476
H     -2.822045    2.962407   -1.956394
H     -4.349791    1.012463   -1.867020
H      2.387336    3.391974    1.398510
H      4.027633    1.514698    1.544928
H     -0.538422    2.836816   -1.032174
H      0.115394    2.961097    0.526783
H     -3.593460   -1.041315   -0.823093
H      3.366275   -0.743169    0.781375
H     -2.122400   -2.322278   -0.255541
H     -2.569745   -1.697073    1.960045
H     -0.939640   -1.143484    2.197425
H     -0.691402    0.000000    0.000000
