41

C      5.292503   -0.318235   -0.718745
C     -1.597252   -2.729998    1.562696
C     -1.073082    3.746767    0.329595
C      0.286313    3.553422    0.274315
C     -4.726838    0.139504   -0.913375
C     -4.656538   -1.201322   -0.521599
C     -1.978654    2.702870    0.183661
C     -3.655454    0.992229   -0.746036
C      0.779551    2.277171    0.066918
C     -3.501758   -1.704522    0.045561
C      4.309285   -0.405878    0.447925
C     -1.460656    1.458380   -0.021806
C     -2.525896    0.471117   -0.180533
C     -0.082994    1.224403   -0.081537
C     -2.441155   -0.870968    0.214054
C      0.633889   -0.047510   -0.253275
C      2.941234   -0.696357   -0.052426
C      0.040811   -1.142111    0.560604
N      1.998169    0.143611    0.190040
N     -1.318217   -1.558891    0.769099
O      4.744889   -1.379086    1.353468
O      2.636391   -1.825567   -0.765001
O      0.868525   -1.841767    1.188566
H      4.712298   -0.376117   -1.650062
H      5.806724    0.660019   -0.715666
H      6.006339   -1.167335   -0.674266
H     -0.737726   -2.880624    2.248143
H     -2.488054   -2.601990    2.214811
H     -1.660245   -3.652372    0.947046
H     -1.498190    4.728910    0.490522
H      0.989194    4.398192    0.392454
H     -5.629385    0.516398   -1.352934
H     -5.486700   -1.880705   -0.645439
H     -3.033036    2.827636    0.260466
H     -3.683088    2.004931   -1.071424
H      1.865397    2.170684    0.030984
H     -3.399350   -2.753660    0.370766
H      4.328667    0.554500    0.990986
H      0.651951   -0.285551   -1.325925
H      5.733981   -1.458430    1.354018
H      2.008160   -1.791749   -1.553803
