42

C      2.998525   -0.637760    1.504220
C     -2.752405   -3.913640   -0.181684
C     -2.929562    3.636071    0.456820
C     -3.171016   -1.167154   -0.632856
C     -3.331579    0.180680   -0.847839
C      3.898567   -0.052342   -0.586587
C      3.448057    1.343532   -0.860978
C      0.502761   -1.326131   -0.083711
C      0.116209    1.562122   -0.550429
C     -0.835114   -0.765677   -0.355247
C     -0.965291    0.575237   -0.564889
C      1.610644   -0.373796   -0.437600
C     -1.908495   -1.632290   -0.385658
C      1.361955    1.014829    0.098469
C     -2.256747    1.047041   -0.817185
N      2.861291   -0.841155    0.096992
O     -1.698538   -3.000049   -0.160758
O      2.456912    1.808735   -0.046810
S     -2.574801    2.772841   -1.108590
Cl     0.689662    0.000000    0.000000
H      2.071643   -0.696533    2.078185
H      3.458233    0.358421    1.672646
H      3.699753   -1.421470    1.910874
H     -2.317569   -4.943484   -0.166106
H     -3.383659   -3.852135    0.741071
H     -3.413868   -3.829256   -1.055414
H     -2.124171    4.351155    0.718875
H     -3.857782    4.241332    0.295581
H     -3.153865    2.911263    1.248696
H     -3.996087   -1.872109   -0.650693
H     -4.335889    0.562961   -1.046227
H      4.848325   -0.145671   -0.061940
H      4.036676   -0.577543   -1.576710
H      3.212494    1.488145   -1.956022
H      4.348130    2.009067   -0.696851
H      0.542111   -1.679298    0.953402
H      0.621473   -2.222243   -0.748708
H     -0.232561    2.416800    0.100055
H      0.310101    2.019209   -1.539427
H      1.701812   -0.304289   -1.531700
H      1.133328    0.954580    1.203525
H     -0.689662    0.000000    0.000000
