28

C      2.911960   -1.023849   -0.525462
C      1.612201   -0.593945   -0.664846
C      3.658389   -0.530769    0.521903
C      1.788371    0.785911    1.234043
C     -2.170486   -0.390892   -1.153167
C     -0.639698    1.410308   -1.314568
C     -2.172264   -0.388361    1.350461
C      1.008463    0.306556    0.186553
C     -1.323897   -0.441446    0.096227
C      3.099216    0.369961    1.397646
C     -1.324280    0.364015   -2.102535
C     -0.401555    0.744955   -0.001220
F      3.867669    0.829151    2.412615
O     -3.059578   -1.431873    1.436452
O     -1.213580    0.169492   -3.274446
H      3.330538   -1.735634   -1.230059
H      1.034137   -0.985405   -1.488498
H      4.674234   -0.842609    0.662393
H      1.351546    1.490964    1.920001
H     -2.357605   -1.402039   -1.567061
H     -3.104905    0.183686   -1.016268
H      0.273167    1.802724   -1.797329
H     -1.349497    2.252496   -1.188015
H     -1.461904   -0.455327    2.207254
H     -2.642211    0.615581    1.391412
H     -0.752251   -1.395755    0.068136
H     -0.646884    1.461505    0.803085
H     -3.989295   -1.169401    1.635293
