81

C     -2.395048    3.846887    0.377743
C     -3.192547    3.076503    1.368664
C     -6.515882    3.196894   -2.286860
C      3.601434   -4.384375   -2.028738
C     -6.907918    3.289212   -0.945079
C     -5.280914    2.667112   -2.562445
C      3.027080   -3.278370   -2.614680
C      2.926719   -4.977122   -0.980512
C     -5.079782   -2.835502    0.245772
C     -4.758598   -4.106662   -0.164482
C     -6.060089    2.854285    0.052109
C     -4.435655    2.232441   -1.558964
C      1.806776   -2.763175   -2.176325
C      1.738046   -4.472786   -0.554653
C     -4.108205   -1.829404    0.337809
C     -3.450085   -4.360505   -0.483035
C      5.805047    2.168656    0.996461
C      7.152017    2.491650    1.543603
C      2.597488   -1.585237    0.773506
C      2.739696    0.195817   -0.841397
C      3.341998   -0.700300    1.740293
C      3.105794    1.225479    0.213208
C      0.592540   -0.558985   -0.088860
C     -4.821991    2.323153   -0.218597
C      1.127675   -3.347337   -1.131780
C     -2.795565   -2.115239    0.008579
C     -0.456515   -1.577301   -0.252511
C     -3.886584    1.854311    0.885677
C     -2.447211   -3.382327   -0.405206
C      5.209680    0.944990    1.561086
C     -1.775176   -1.173876    0.090267
C     -0.156606   -2.839529   -0.665555
C     -2.100729    0.210091    0.410758
N      7.153835    2.703731    2.977861
N     -1.202686   -3.728830   -0.725746
N     -3.229356    0.687484    0.591061
N      1.948752   -0.873623   -0.284940
N      3.912414    0.477892    1.192606
O      5.858951    0.276598    2.399172
O     -1.054613    1.145111    0.543969
Cl     0.690154    0.000000    0.000000
Cl     0.691673    0.000000    0.000000
H     -1.406203    4.099802    0.877936
H     -2.848764    4.854776    0.211865
H     -2.133029    3.345449   -0.553876
H     -4.036923    3.789328    1.687459
H     -2.652691    2.939875    2.335113
H     -7.186157    3.541503   -3.065712
H      4.554645   -4.787576   -2.373755
H     -7.866172    3.698728   -0.680882
H     -4.957045    2.586304   -3.594984
H      3.568436   -2.829122   -3.429431
H      3.365234   -5.858859   -0.496680
H     -6.097834   -2.578379    0.511103
H     -5.545625   -4.851674   -0.219011
H     -6.367779    2.926202    1.111281
H     -3.468512    1.809807   -1.770301
H      1.379582   -1.895179   -2.690494
H      1.197432   -4.925794    0.264472
H     -4.417196   -0.863190    0.678596
H     -3.198307   -5.362395   -0.803822
H      5.898279    2.101620   -0.114456
H      5.153446    3.070083    1.173513
H      7.929159    1.750149    1.259961
H      7.472573    3.468519    1.081365
H      3.360803   -2.253111    0.330063
H      1.838230   -2.123864    1.368176
H      3.687533   -0.242979   -1.209152
H      2.134968    0.685976   -1.627443
H      4.169581   -1.300232    2.220246
H      2.692376   -0.399178    2.607897
H      3.652472    2.031507   -0.267661
H      2.208607    1.557528    0.805346
H      0.345345    0.264615   -0.784200
H      0.463639   -0.134424    0.968229
H     -4.671626    1.646082    1.730950
H      7.665400    1.969689    3.509316
H      7.525507    3.622076    3.250141
H     -0.943569    1.668527    1.422731
H     -0.690154    0.000000    0.000000
H     -0.691673    0.000000    0.000000
