33

C      3.232306   -0.701347    0.347427
C      2.484651   -0.918453   -0.938382
C      2.318021   -0.399378    1.510828
C      1.422440    0.140097   -1.203928
C      0.864635   -0.562944    1.082983
C     -1.312496    2.034769   -0.279377
C     -2.833225    1.808413   -0.490385
C      0.551803    0.405029    0.019545
C     -0.852883    0.582099   -0.363840
C     -1.869799   -0.067713    0.371379
C     -1.954782   -1.602836    0.181544
N     -3.150904    0.546263    0.215758
O     -1.862831   -2.328498    1.111645
O     -2.080860   -1.972206   -1.135240
H      3.766301   -1.656840    0.588285
H      4.033886    0.058311    0.237615
H      2.050665   -1.931910   -0.960461
H      3.216080   -0.847239   -1.774966
H      2.561416   -0.999181    2.405405
H      2.461912    0.684853    1.746500
H      0.744347   -0.340513   -1.978011
H      1.857120    1.018612   -1.649583
H      0.750732   -1.613743    0.737576
H      0.263188   -0.385962    2.006523
H     -1.210162    2.321283    0.802979
H     -0.868178    2.707829   -0.958979
H     -3.440465    2.609993   -0.111927
H     -2.910796    1.685768   -1.585293
H      0.962116    1.420314    0.376046
H     -0.978128    0.336907   -1.462597
H     -1.687358    0.063820    1.538406
H     -3.773449    0.652177    0.978855
H     -2.755300   -2.747775   -1.366330
