52

C      0.926276   -2.094381    0.989567
C     -6.843099    0.027634    0.431683
C      7.855434   -1.185229    0.466804
C      8.708968   -0.448255   -0.349631
C     -5.815436   -0.001536    1.521235
C     -6.257847   -0.245406   -0.912544
C      6.515990   -0.878066    0.548911
C      8.186446    0.600603   -1.078360
C     -4.563905    0.698282    1.023557
C     -4.846629   -0.727712   -0.910461
C     -0.421372    1.148595   -0.085880
C      2.571098    1.495494   -0.422815
C     -2.795644    0.531921   -0.613316
C     -1.703294    0.532935    0.429772
C      5.996783    0.155121   -0.167958
C      6.852086    0.888637   -0.981702
C      0.594054    0.507951    0.851832
C      1.948056    0.649887    0.414693
C      4.590999    0.545342   -0.142024
C     -1.255561   -0.857778    0.720369
Cl     6.235133    2.239601   -1.932580
N      3.849248    1.367524   -0.629229
N      0.157983   -0.872741    0.863047
N     -3.960669   -0.074634   -0.013270
O     -2.012660   -1.855018    0.821920
S      3.365068   -0.389317    0.914213
Cl     0.687022    0.000000    0.000000
H      0.293463   -2.971983    1.187867
H      1.659771   -2.046816    1.815567
H      1.409664   -2.276660    0.004145
H     -7.367756    1.002914    0.496310
H     -7.624290   -0.736636    0.712543
H      8.300008   -1.987728    1.014099
H      9.760004   -0.707506   -0.399939
H     -5.599434   -1.038595    1.806373
H     -6.230929    0.502606    2.406606
H     -6.877727   -1.039290   -1.392099
H     -6.380584    0.661798   -1.544218
H      5.852877   -1.467439    1.198022
H      8.828033    1.198497   -1.727672
H     -4.916753    1.664107    0.566093
H     -3.923304    0.862704    1.897834
H     -4.861601   -1.821345   -0.626219
H     -4.466036   -0.659662   -1.951966
H     -0.217677    0.888627   -1.144463
H     -0.409004    2.256446    0.057114
H      1.979842    2.300047   -0.932280
H     -3.045530    1.614978   -0.781011
H     -2.455604    0.032534   -1.516218
H     -1.979751    1.090491    1.337320
H      0.394813    0.918458    1.862638
H     -0.687022    0.000000    0.000000
