52

C      0.643286   -3.318506   -1.677819
C     -5.679296    1.755978    0.736992
C      7.595851    0.461375    1.099591
C      7.379195    1.482614    1.994670
C     -5.569083    0.272404    1.105487
C     -4.675088    2.060658   -0.325462
C      6.501330   -0.036263    0.370302
C      6.104030    1.997155    2.160861
C     -4.172969    0.081126    1.649588
C     -3.283563    1.582114   -0.004621
C     -0.531412   -0.091198   -0.697960
C      2.878585   -1.325189   -1.712091
C     -2.878149   -0.794496   -0.174195
C     -1.869119   -0.554893   -1.232574
C      5.259714    0.458719    0.526528
C      5.031279    1.475406    1.414518
C      0.410606   -0.700151   -1.729995
C      1.776944   -0.645301   -1.349823
C      4.181794   -0.155754   -0.307462
C     -1.505827   -1.903714   -1.806236
Cl     3.423265    2.097089    1.598898
N      4.013318   -0.987911   -1.121453
N     -0.070949   -2.062896   -1.733873
N     -3.208393    0.328656    0.636529
O     -2.303759   -2.758037   -2.272870
S      2.456247    0.486677   -0.132664
Cl     0.688789    0.000000    0.000000
H     -0.001812   -4.149342   -1.310488
H      1.443781   -3.234620   -0.897693
H      1.019476   -3.658213   -2.660980
H     -6.692977    1.928707    0.292465
H     -5.515756    2.356829    1.646783
H      8.596120    0.079060    0.988979
H      8.171767    1.924517    2.598439
H     -6.327350    0.006638    1.846169
H     -5.642578   -0.330344    0.158528
H     -4.633989    3.185469   -0.421997
H     -5.057179    1.700302   -1.291323
H      6.698932   -0.842516   -0.329847
H      5.920112    2.798815    2.860107
H     -4.048801    0.740723    2.539922
H     -4.046633   -0.952447    2.015899
H     -2.846556    2.355425    0.694750
H     -2.685695    1.626026   -0.911194
H     -0.364416   -0.558234    0.284878
H     -0.382618    0.986163   -0.732848
H      2.859764   -2.143584   -2.481122
H     -2.481012   -1.598817    0.503559
H     -3.819646   -1.207601   -0.590193
H     -2.223778    0.033366   -2.092381
H      0.153006   -0.251983   -2.715848
H     -0.688789    0.000000    0.000000
