88

C      3.617922   -1.244752   -0.841794
C      3.689900   -1.802219    1.438001
C     -2.575392   -0.958659    0.505389
C      4.783761   -1.898860   -1.104925
C      4.879731   -2.477014    1.201545
C     -3.053587   -2.169968    0.935144
C     -1.369799   -2.092164   -1.206130
C     -2.114704    5.046830    0.576809
C     -3.400100    3.230720   -0.289384
C      0.205444    2.334783   -0.540975
C      3.060158   -1.184094    0.404320
C     -1.724212   -0.921253   -0.577341
C      5.423254   -2.526568   -0.055190
C     -3.335895    4.489125    0.277095
C     -1.009291    3.125929   -0.238541
C     -2.686709   -3.362428    0.287184
C     -0.906558    4.386927    0.330458
C     -1.839096   -3.348748   -0.794547
C     -2.224623    2.552279   -0.545340
C     -0.106105    0.880016   -0.157616
C     -1.183688    0.393261   -1.071319
C      1.798125   -0.467027    0.649431
O      6.610211   -3.196724   -0.304428
O     -4.509526    5.190545    0.543499
O     -3.201568   -4.537486    0.769249
O      0.272524    5.000126    0.652655
O     -1.448242   -4.493166   -1.465967
O      1.305749   -0.423135    1.792250
O     -2.246880    1.294749   -1.110143
O      1.125956    0.175630   -0.377600
C     -0.966966   -0.008475   -0.008580
C      0.474934    0.241412   -0.062317
O      0.890537    1.416746   -0.144899
O      1.333725   -0.836238   -0.019737
C     -0.968460   -0.131065    0.024888
C      0.441924    0.277002    0.021816
O      0.748203    1.467759   -0.241926
O      1.491999   -0.589519    0.298886
C     -0.992826    0.014822    0.123511
C      0.459483    0.258851   -0.123496
O      0.829512    1.150257   -0.946576
O      1.447426   -0.469589    0.528392
C     -0.985665   -0.118028    0.071200
C      0.431672    0.260844   -0.158073
O      0.731475    1.453600   -0.457133
O      1.478671   -0.625573   -0.064782
C     -0.993229   -0.046807   -0.014370
C      0.456263    0.214645   -0.053287
O      0.833670    1.412791    0.028605
O      1.434105   -0.743257   -0.171898
H      3.095560   -0.740820   -1.660197
H      3.291800   -1.784480    2.440847
H     -2.843269   -0.016334    0.989228
H      5.158098   -1.900144   -2.116302
H      5.406781   -2.981532    2.009772
H     -3.724358   -2.222810    1.784893
H     -0.704460   -2.094174   -2.057158
H     -2.081621    6.033554    1.020261
H     -4.326009    2.744496   -0.545084
H      0.350344    2.363850   -1.646503
H      1.107021    2.642006   -0.018300
H     -0.401644    0.824030    0.893748
H     -0.769081    0.244838   -2.086542
H      7.108237   -3.663703    0.416004
H     -4.852627    5.785446   -0.196119
H     -3.007907   -5.419873    0.389295
H      1.148029    4.569677    0.492239
H     -1.791655   -5.380684   -1.160024
H     -1.245280   -0.991391    0.418819
H     -1.433663    0.751335    0.678421
H     -1.367597    0.089210   -1.038956
H      2.314310   -0.662599    0.177249
H     -1.428236    0.017641    1.018974
H     -1.137634   -1.181461   -0.257932
H     -1.513368    0.539754   -0.691696
H      2.365573   -0.400111   -0.173009
H     -1.318443   -0.773871   -0.587833
H     -1.564853    0.917578   -0.108940
H     -1.134021   -0.378512    1.130222
H      2.273721   -0.719535   -0.015280
H     -1.121482   -0.520984    1.116031
H     -1.317162   -0.900892   -0.640745
H     -1.624230    0.763489   -0.065841
H      2.406721   -0.312456    0.199343
H     -1.504994    0.619937   -0.765115
H     -1.356829    0.214445    1.011968
H     -1.228957   -1.121479   -0.211735
H      2.359972   -0.550275    0.175832
