81

C     -3.472342    4.669210    1.563186
C     -3.363401    3.166860    1.749701
C     -5.077910    3.488909   -3.014987
C      2.566833   -5.720905   -1.494484
C     -3.938702    4.211728   -2.715458
C     -5.426381    2.476410   -2.145464
C      1.947836   -4.883259   -2.365689
C      2.226477   -5.687199   -0.161074
C     -4.635808   -1.677354    2.167017
C     -4.543613   -3.044784    2.261142
C     -3.167411    3.946331   -1.595517
C     -4.661319    2.209903   -1.030639
C      0.980835   -4.006686   -1.892176
C      1.254876   -4.800717    0.292418
C     -3.635969   -0.955863    1.528208
C     -3.479092   -3.720738    1.736337
C      5.280648    1.298908    1.075730
C      5.764963    2.581805    1.710076
C      2.793253   -1.760387   -0.289765
C      2.367807   -0.665100   -2.357711
C      4.064649   -0.925978   -0.491962
C      2.790565    0.708093   -1.831285
C      0.625064   -0.900402   -0.843860
C     -3.522072    2.933319   -0.731386
C      0.620170   -3.944349   -0.586455
C     -2.546747   -1.599713    0.985618
C     -0.416482   -1.678630   -0.186370
C     -2.703832    2.623069    0.488177
C     -2.475754   -2.985003    1.094841
C      4.298097    1.512227   -0.004546
C     -1.498829   -0.935931    0.334064
C     -0.386280   -3.036631   -0.065115
C     -1.580024    0.486617    0.189010
N      6.720907    2.218725    2.734821
N     -1.439659   -3.621786    0.584391
N     -2.549198    1.215701    0.590113
N      1.819605   -1.485974   -1.296921
N      3.724892    0.447789   -0.756858
O      3.947046    2.684889   -0.277254
O     -0.584920    1.295317   -0.428583
Cl     0.688207    0.000000    0.000000
Cl     0.686525    0.000000    0.000000
H     -3.476017    5.158384    2.576191
H     -2.540329    5.012407    1.065697
H     -4.374951    4.946662    0.986606
H     -2.656506    2.951224    2.581425
H     -4.355252    2.739144    1.925027
H     -5.658258    3.726803   -3.908333
H      3.331720   -6.417592   -1.871479
H     -3.639529    5.018579   -3.388028
H     -6.310974    1.907121   -2.361463
H      2.188963   -4.877195   -3.423404
H      2.732998   -6.360968    0.508115
H     -5.466679   -1.118358    2.571451
H     -5.335702   -3.572074    2.761924
H     -2.262120    4.524817   -1.361518
H     -4.945466    1.400084   -0.339577
H      0.495155   -3.372259   -2.625229
H      1.008047   -4.797366    1.350938
H     -3.727802    0.107821    1.470085
H     -3.377088   -4.806113    1.794519
H      6.210932    0.788713    0.673004
H      4.883729    0.654244    1.888834
H      6.285467    3.248002    0.969713
H      4.959184    3.160367    2.206738
H      2.396865   -1.491144    0.700511
H      3.156431   -2.808617   -0.246600
H      3.203367   -1.152191   -2.877067
H      1.585051   -0.479600   -3.138990
H      4.620012   -0.965413    0.454427
H      4.692242   -1.366467   -1.296375
H      1.934219    1.224026   -1.406296
H      3.261690    1.236111   -2.687582
H      0.136229   -0.297575   -1.684253
H      0.969019   -0.090926   -0.108783
H     -1.714385    3.101069    0.412359
H      7.606858    2.743203    2.608695
H      6.351864    2.235052    3.700928
H     -0.857762    1.951598   -1.156414
H     -0.688207    0.000000    0.000000
H     -0.686525    0.000000    0.000000
