33

C     -4.688115   -1.108999   -0.386906
C     -5.225031    1.172597    0.214897
C      4.413081    0.229088   -1.075031
C      1.803889   -1.105725   -0.209855
C      1.339388    1.139023    0.383632
C      0.451128   -1.361365   -0.315513
C     -0.016406    0.890606    0.279840
C     -2.814432    0.415332    0.075827
C     -4.227629    0.063057   -0.057737
C      3.712970    0.430899    0.256716
C      2.257345    0.149432    0.141311
C     -0.444549   -0.372087   -0.072674
C      4.344165   -0.428133    1.291316
N     -1.860056   -0.613344   -0.176223
O      5.276333   -1.217590    0.966601
O      3.910262   -0.360721    2.602559
H     -4.032224   -1.932503   -0.591551
H     -5.783028   -1.239504   -0.451946
H     -6.135497    0.745535    0.681772
H     -4.798973    1.949385    0.857498
H     -5.527288    1.595833   -0.778501
H      5.257608   -0.471247   -0.935051
H      4.855739    1.184073   -1.459143
H      3.741659   -0.184008   -1.850172
H      2.523573   -1.891059   -0.402395
H      1.691310    2.133016    0.661542
H      0.134776   -2.347458   -0.590320
H     -0.754002    1.662689    0.468322
H     -2.623359    0.791704    1.119867
H     -2.631941    1.287952   -0.609127
H      3.860516    1.484441    0.545281
H     -2.159798   -1.564620   -0.441384
H      4.148587   -1.126300    3.245217
