53

C     -4.666870   -2.811419    2.367376
C     -0.011459   -4.505956   -0.160450
C      6.848727   -0.869397   -1.931485
C     -3.552978    3.357984    0.450745
C     -2.425629    4.159567    1.065826
C     -3.273678    1.908733    0.369725
C     -1.169020    3.625495    0.410501
C      2.654440    1.145908   -0.569797
C      1.938470   -0.910660   -1.393685
C      3.819507    1.074492   -1.249259
C      3.149291   -1.010663   -2.112313
C     -2.769082   -0.897200    1.466718
C     -0.479871   -1.795037    0.221531
C      1.653809    0.156992   -0.604299
C      4.091953   -0.019525   -2.042077
C     -2.104949    1.436862    1.203220
C     -1.845716   -0.000792    1.024825
C     -0.679431   -0.432870    0.390150
C     -0.900774    2.287080    1.090024
C     -2.551771   -2.244630    1.285490
C     -1.410526   -2.704331    0.663858
C      0.388318    0.469219    0.066008
N      0.195456    1.705334    0.438221
O      5.468497   -0.894918   -4.186379
O      6.033177    1.306060   -3.230157
O     -3.469858   -3.203621    1.719330
O     -1.174135   -4.065728    0.471376
S      5.604168   -0.087475   -2.906032
H     -5.309143   -2.348084    1.608346
H     -5.157043   -3.662981    2.878613
H     -4.473992   -2.057786    3.175175
H     -0.009264   -5.594098   -0.334858
H      0.079586   -3.968680   -1.137174
H      0.897829   -4.259390    0.432289
H      6.707029   -0.758695   -0.849744
H      7.825366   -0.401999   -2.184241
H      6.906572   -1.976877   -2.126895
H     -4.475205    3.518071    1.073899
H     -3.722986    3.762579   -0.569500
H     -2.570612    5.229889    0.898600
H     -2.364560    3.899496    2.149930
H     -4.194207    1.348920    0.639492
H     -3.096618    1.655019   -0.701596
H     -0.334620    4.286602    0.640382
H     -1.333423    3.500300   -0.679449
H      2.439317    2.013870    0.065471
H      1.219151   -1.686414   -1.578973
H      4.580110    1.878179   -1.190960
H      3.317222   -1.885674   -2.719247
H     -3.703368   -0.604639    1.973007
H      0.414188   -2.199481   -0.170412
H     -2.473078    1.534739    2.271673
H     -0.528317    2.597632    2.117181
