56

C     -3.672287    4.495142   -0.436157
C     -5.057995   -0.275397    2.000517
C      7.251413    2.220157    1.939027
C     -2.915716   -3.446531   -0.701369
C     -2.008421   -3.764154    0.410913
C     -2.362002   -2.606868   -1.764829
C     -1.050910   -2.679145    0.837081
C      4.302889   -0.590099   -0.675329
C      2.773944    0.885777    0.400203
C     -1.757905    0.875774   -1.504881
C      5.372803    0.272271   -0.492956
C      3.846599    1.745645    0.580799
C     -2.371081    2.064435   -1.167364
C     -3.083790   -0.253319    0.053205
C      3.021406   -0.308237   -0.245025
C     -2.098573   -0.346591   -0.895949
C      5.116831    1.458351    0.150472
C     -1.400339   -1.558876   -1.320828
C     -0.404493   -2.138581   -0.365917
C     -3.355089    2.095724   -0.205626
C     -3.706015    0.914410    0.405095
C      1.984950   -1.299108   -0.494492
N      0.634802   -1.159845   -0.123855
O      2.302618   -2.352725   -1.078209
O      7.489968    2.382871   -0.698037
O      6.012817    3.991625    0.343623
O     -4.010722    3.272690    0.175411
O     -4.712821    0.947228    1.389040
S      6.467370    2.558354    0.391221
H     -4.127616    4.590856   -1.452112
H     -2.584187    4.648923   -0.552540
H     -4.145071    5.298783    0.170342
H     -4.204745   -0.827720    2.407091
H     -5.695107   -0.896402    1.306360
H     -5.747321   -0.068066    2.870241
H      6.754984    2.831840    2.715090
H      8.320772    2.441755    1.839598
H      7.146213    1.131580    2.150877
H     -3.943666   -3.162036   -0.358611
H     -3.143878   -4.468363   -1.196256
H     -2.623810   -4.086903    1.305209
H     -1.398966   -4.674104    0.156387
H     -1.765318   -3.294661   -2.454820
H     -3.137049   -2.199281   -2.467992
H     -1.519616   -1.988853    1.533645
H     -0.313560   -3.253183    1.499581
H      4.534014   -1.533870   -1.193005
H      1.791012    1.101781    0.729653
H     -0.998734    0.953074   -2.268318
H      6.379038    0.026014   -0.842450
H      3.707573    2.693808    1.082082
H     -2.102364    3.003881   -1.644651
H     -3.409313   -1.136740    0.562037
H     -0.783613   -1.219714   -2.252667
H      0.034877   -3.032436   -0.914803
H      0.365197   -0.280940    0.364247
