88

C      3.370331   -1.132189    0.829487
C      4.041987   -1.043290   -1.439832
C     -1.798295   -1.628557   -1.447772
C      4.533169   -1.790575    1.143306
C      5.224887   -1.713976   -1.115705
C     -1.820585   -2.999068   -1.723996
C     -1.307468   -2.140426    0.799940
C     -2.854055    4.995829    0.590578
C     -3.881647    3.003708   -0.131043
C     -0.228012    2.321688    0.405312
C      3.117037   -0.754465   -0.462693
C     -1.541285   -1.179772   -0.181228
C      5.478764   -2.092268    0.177917
C     -3.997230    4.336852    0.194672
C     -1.552823    2.991837    0.321580
C     -1.585462   -3.927252   -0.732613
C     -1.635923    4.314031    0.650814
C     -1.325707   -3.481208    0.546505
C     -2.684796    2.320974   -0.075214
C     -0.263455    0.950075   -0.280895
C     -1.506709    0.258134    0.161701
C      1.887410   -0.052606   -0.824101
O      6.655224   -2.764697    0.528458
O     -5.180023    5.058030    0.151623
O     -1.612599   -5.291330   -1.030849
O     -0.512355    5.030282    1.057906
O     -1.093474   -4.444059    1.519980
O      1.672622    0.284952   -2.010169
O     -2.610874    0.956200   -0.417288
O      0.914471    0.269570    0.108008
C     -0.988704   -0.062455    0.092996
C      0.448149    0.261602   -0.138366
O      0.788040    1.468383   -0.235424
O      1.390557   -0.737336   -0.244732
C     -0.979348   -0.051052    0.012339
C      0.460544    0.284997    0.051277
O      0.889264    1.452991   -0.108685
O      1.416630   -0.692319    0.270019
C     -0.971343   -0.048074    0.061384
C      0.461470    0.267437   -0.088470
O      0.829262    1.367048   -0.551129
O      1.413566   -0.659019    0.285069
C     -0.978730   -0.097615   -0.042734
C      0.444722    0.324083   -0.162429
O      0.802584    1.453724   -0.540721
O      1.420521   -0.613200    0.172693
C     -0.980704   -0.070237   -0.111428
C      0.456902    0.304497   -0.074519
O      0.833568    1.498572   -0.064398
O      1.476084   -0.660259   -0.048869
H      2.674315   -0.927614    1.631293
H      3.898131   -0.773164   -2.464272
H     -1.983362   -0.907644   -2.229292
H      4.773419   -2.109205    2.161957
H      5.963982   -1.950268   -1.867907
H     -2.021095   -3.362675   -2.713815
H     -1.105973   -1.770845    1.795206
H     -2.879541    6.033630    0.856765
H     -4.770544    2.481676   -0.441425
H     -0.032607    2.113635    1.476354
H      0.577493    2.936773   -0.044495
H     -0.247894    1.153446   -1.385591
H     -1.571505    0.359595    1.272647
H      6.796803   -3.022628    1.494973
H     -6.028212    4.559243   -0.144689
H     -1.437741   -5.959774   -0.290869
H      0.394835    4.597448    1.122705
H     -0.903632   -4.108055    2.456068
H     -1.547003    0.329390   -0.794634
H     -1.118645   -1.162383    0.190383
H     -1.307721    0.484013    1.014366
H      2.335327   -0.581215    0.115411
H     -1.556722    0.827376   -0.370483
H     -1.359563   -0.374251    0.996295
H     -1.194132   -0.893780   -0.697977
H      2.323327   -0.553963   -0.152784
H     -1.542436    0.091177   -0.887340
H     -1.152008   -1.074822    0.438677
H     -1.378614    0.644973    0.827718
H      2.340104   -0.588721   -0.085908
H     -1.330559    0.063499    1.009478
H     -1.066508   -1.195458   -0.209551
H     -1.623808    0.390473   -0.788108
H      2.331779   -0.325505    0.561371
H     -1.143594   -0.976047   -0.715210
H     -1.571534    0.775349   -0.508565
H     -1.341569   -0.319222    0.919843
H      2.270847   -0.552652    0.603146
