73

C      8.743701   -0.149781    1.884423
C     -6.039391    1.526976    4.125879
C      3.172568    3.642175   -0.369260
C     -4.589249   -1.552111   -1.407806
C     -5.654437    0.492515   -2.165792
C     -0.504467   -1.288288   -2.379520
C      0.277506   -2.154851   -0.243632
C      4.373987   -1.027287    1.067428
C      4.790331   -1.019012   -1.341936
C      8.539158   -0.897423    0.581088
C     -4.419134    1.383044    2.256566
C      0.929109    2.552859   -0.736282
C     -6.232097    0.081577    0.648291
C      1.972253    0.071474   -0.567253
C     -3.288233    0.562656   -1.678452
C     -1.605067   -0.611209   -0.220502
C     -5.670099    1.109539    2.726743
C      2.283484    2.439006   -0.515119
C     -4.979514    0.343381    0.147080
C      0.622287    0.200128   -0.787690
C     -6.587556    0.464680    1.947695
C      2.824889    1.152174   -0.427354
C     -4.087365    0.991949    0.959023
C      0.096042    1.463963   -0.872907
C      6.340240    0.066763    0.183911
C     -4.568128   -0.043994   -1.215611
C     -0.312445   -0.945563   -0.940186
C      4.886172   -0.180670   -0.089698
C     -2.223801    0.670584   -0.632261
O     -7.837444    0.213007    2.472255
O      6.819447    1.221172    0.287869
O      7.143001   -1.048238    0.318973
O      4.182911    1.023464   -0.205381
O     -2.831557    1.273398    0.504561
O     -1.260519    1.598897   -1.094363
H      9.373601    0.738449    1.644095
H      7.751477    0.153056    2.269590
H      9.270241   -0.746205    2.639425
H     -7.084748    1.269434    4.333657
H     -5.387432    1.036742    4.876124
H     -5.923087    2.625797    4.244454
H      2.524460    4.529899   -0.472744
H      3.749462    3.622090    0.564963
H      3.823874    3.636181   -1.284588
H     -3.770392   -1.894776   -2.072947
H     -4.589252   -2.090383   -0.420268
H     -5.531707   -1.902496   -1.902941
H     -5.265569    0.631936   -3.185819
H     -6.499349   -0.227649   -2.233537
H     -6.084691    1.437317   -1.762678
H     -0.338717   -0.367899   -3.013022
H     -1.437490   -1.795937   -2.624367
H      0.322653   -1.987815   -2.703054
H      0.583601   -1.949474    0.791558
H      1.074242   -2.636816   -0.855031
H     -0.549397   -2.920443   -0.206942
H      5.160328   -1.178585    1.848048
H      3.505113   -0.515316    1.571450
H      4.085465   -2.048533    0.748555
H      4.129505   -0.512085   -2.084630
H      4.402108   -2.053521   -1.122798
H      5.799115   -1.142748   -1.782711
H      8.984775   -1.909640    0.681874
H      8.998314   -0.377591   -0.281592
H     -3.721800    1.895519    2.905174
H      0.510626    3.561445   -0.804308
H     -6.951820   -0.419950    0.047827
H      2.380821   -0.924876   -0.501547
H     -2.973095    0.048527   -2.600288
H     -3.521480    1.621569   -2.000680
H     -1.304788   -0.501431    0.865729
H     -2.281026   -1.474033   -0.241306
H     -8.520526   -0.262302    1.904493
