30

C     -0.351823    3.485366    1.375666
C     -0.453596    0.699972   -2.047039
C     -3.534493   -1.656619    0.605873
C      3.150371   -1.776131    0.502072
C      3.156596   -0.989931   -0.628051
C      2.015406   -1.925405    1.269512
C      2.009159   -0.340207   -0.999958
C      0.889157   -1.256374    0.859566
C      0.010782    2.429645    0.402490
C      0.865180   -0.454493   -0.278319
C     -1.482409   -0.823420   -0.464910
C     -0.407591    0.222570   -0.629517
O      1.001784    2.567971   -0.356025
O     -1.442772   -1.863347   -1.172034
O     -2.514102   -0.692882    0.430584
O     -0.714226    1.257738    0.284178
H     -1.456983    3.627915    1.345696
H     -0.047970    3.173763    2.380606
H      0.187957    4.421685    1.115053
H     -0.256191    1.785310   -2.155093
H     -1.497593    0.536839   -2.449927
H      0.190790    0.094387   -2.728144
H     -4.251846   -1.672095   -0.254045
H     -4.124035   -1.343206    1.490956
H     -3.156033   -2.669979    0.791560
H      4.069762   -2.296943    0.800352
H      4.072443   -0.903132   -1.199070
H      2.046505   -2.554271    2.155902
H      2.036126    0.268718   -1.885271
H     -0.010354   -1.353445    1.437337
