59

C      4.510545   -1.767900   -0.850723
C      5.485008   -0.632474   -0.939063
C      3.218301   -1.682714   -1.016482
C      6.202197   -0.522753    0.365862
C     -8.961296    1.023826   -1.046129
C     -8.664873    2.347029   -0.855158
C     -7.972158    0.112342   -0.817198
C      2.488769   -0.462003   -1.316980
C      7.213965    0.584387    0.308420
C     -2.107505   -0.759748   -0.094819
C     -0.965077   -0.736143   -0.757074
C     -6.436448    1.775111   -0.224735
C      1.738544   -1.231660    1.711292
C     -4.522460   -0.778579    0.138166
C     -7.421560    2.734799   -0.449294
C     -3.396067   -0.305251   -0.737571
C     -6.674193    0.434815   -0.400314
C      1.412627   -0.081860   -0.334530
C      0.348353   -1.156019   -0.225711
C      1.833633    0.141100    1.060890
C      0.338988   -1.632746    1.188086
C      6.636223    1.906468    0.074244
Cl    -7.096672    4.437855   -0.220640
O     -3.372685    1.047219   -0.889494
O      3.008472    0.792727    1.277181
O      0.096137   -2.972069    1.359294
O      5.427499    2.165181   -0.015413
O      7.509329    3.002805   -0.065816
O     -5.787292   -0.536454   -0.203727
Na     0.000000    0.000000    0.000000
H      4.906436   -2.784300   -0.623987
H      6.242826   -0.850513   -1.747378
H      5.026418    0.313421   -1.199185
H      2.624881   -2.617154   -0.922419
H      6.702961   -1.479217    0.658123
H      5.467942   -0.329169    1.179854
H     -9.970781    0.724584   -1.373968
H     -9.474323    3.051012   -1.046167
H     -8.169600   -0.945191   -0.957993
H      3.100507    0.423850   -1.508764
H      1.925301   -0.617473   -2.296939
H      7.832899    0.586631    1.259180
H      7.908077    0.303119   -0.550136
H     -2.123515   -1.108173    0.912923
H     -1.049578   -0.361356   -1.796163
H     -5.471296    2.141008    0.118320
H      2.517086   -1.921866    1.366731
H      1.727538   -1.141315    2.812725
H     -4.317599   -1.874240    0.354133
H     -4.313370   -0.309264    1.157327
H     -3.523984   -0.837041   -1.719202
H      0.912495    0.824305   -0.743695
H      0.676772   -2.040994   -0.847205
H      1.021163    0.750365    1.566091
H     -0.345389   -0.970034    1.795772
H     -3.507600    1.322274   -1.851332
H      2.888227    1.787335    1.379104
H     -0.479497   -3.092123    2.154171
H      7.174701    3.804229   -0.618943
