48

C      5.031102    2.152386   -1.513905
C     -1.649790    4.262215    1.102843
C     -3.722908   -1.706105    0.702321
C      3.966742    0.047793   -0.650893
C      2.563156    1.797874   -1.356041
C      2.855635   -0.705207   -0.338035
C      1.447727    1.036416   -1.039809
C     -1.552370   -3.229701   -0.348517
C     -1.130697   -3.005855    1.070522
C     -0.631076    1.914127    1.421985
C     -0.624272   -1.193005   -1.280401
C      3.840168    1.318134   -1.167614
C     -1.508635    2.806046    0.855055
C      1.548559   -0.237606   -0.521270
C     -1.909773   -1.832957   -0.811008
C      0.387893   -1.085289   -0.176746
C     -1.413971   -1.585868    1.383638
C     -0.900576    0.688434    0.860641
C     -0.258194   -0.627839    1.105804
N     -2.256728    2.112193   -0.003743
N     -2.428107   -1.216689    0.381955
O     -1.876791    0.885194    0.024578
Cl     0.691569    0.000000    0.000000
H      5.931576    1.809284   -0.963311
H      5.153587    2.136183   -2.611461
H      4.819129    3.177554   -1.136813
H     -1.364408    4.793486    0.158116
H     -0.972981    4.633076    1.879307
H     -2.710740    4.545963    1.284483
H     -4.468198   -0.901935    0.521154
H     -4.032461   -2.598655    0.138351
H     -3.772531   -1.911573    1.811471
H      4.965985   -0.332557   -0.501514
H      2.459258    2.807081   -1.766524
H      2.937301   -1.713593    0.072624
H      0.474764    1.460165   -1.211202
H     -0.736437   -3.659858   -0.977324
H     -2.486720   -3.834271   -0.447463
H     -0.135768   -3.378783    1.331504
H     -1.838907   -3.626719    1.699841
H      0.118620    2.116815    2.155415
H     -0.787302   -0.230016   -1.806091
H     -0.191525   -1.885208   -2.047378
H     -2.616497   -1.823346   -1.640832
H      0.793929   -2.115371    0.049510
H     -1.797028   -1.471129    2.404592
H      0.480262   -0.591284    1.902183
H     -0.691569    0.000000    0.000000
