30

C     -1.155186    3.750853    0.047861
C      0.840252    0.069483   -2.025764
C      3.536263   -0.928039    1.267216
C     -2.536510   -2.547587    0.307672
C     -1.823171   -2.002451    1.356678
C     -2.284049   -2.161245   -1.002539
C     -0.846892   -1.059015    1.076376
C     -1.298913   -1.215408   -1.227533
C     -0.618237    2.396722    0.415581
C     -0.564899   -0.647024   -0.209239
C      1.650042    0.299007    0.280775
C      0.437577    0.369122   -0.553102
O     -0.625240    1.972446    1.574610
O      2.053013    1.336798    0.852925
O      2.368473   -0.866254    0.462463
O     -0.112910    1.635076   -0.588596
H     -2.012307    3.998260    0.736724
H     -0.326895    4.474179    0.147402
H     -1.524620    3.728813   -0.977299
H      0.103154    0.577990   -2.657230
H      0.867693   -1.019899   -2.163368
H      1.856310    0.528131   -2.114816
H      4.431418   -0.513802    0.724597
H      3.450030   -0.375560    2.203055
H      3.761825   -1.999826    1.423543
H     -3.300727   -3.283528    0.504772
H     -2.041912   -2.323153    2.369873
H     -2.849307   -2.593089   -1.838043
H     -0.280967   -0.645712    1.894742
H     -1.153308   -0.955289   -2.289334
