61

C     -5.598670   -0.400283    0.726366
C     -5.237086   -2.721723    1.361271
C     -5.844669   -2.179208   -0.981926
C      5.173033   -1.408349    3.369400
C      0.382105    5.122024    0.146628
C      1.424595    4.662392   -0.425808
C     -0.757555    4.542279    0.638074
C      1.493051    3.223000   -0.632722
C     -0.656760    3.131196    0.403090
C      4.720755   -1.173678   -1.671133
C      3.455884   -1.094616   -1.118231
C      0.024740    0.892892   -1.981927
C     -1.466578    0.798716   -2.071263
C      5.695129   -1.286774    0.530999
C      7.028997   -1.064953   -1.517026
C     -0.671622   -1.050495   -0.633753
C      0.863257   -0.829375    1.198355
C      5.846351   -1.259883   -0.779321
C      0.352068    2.472114   -0.167065
C     -0.146009   -0.004604    0.380104
C      0.459592    1.049860   -0.485815
C      3.261416   -1.095636    0.312262
C      4.417355   -1.209325    1.027162
C     -3.155658   -0.629942   -0.896417
C     -5.074283   -1.699882    0.192237
N      8.158794   -0.891842   -2.197708
N     -1.832291   -0.336885   -1.216303
O     -4.039212    0.101714   -1.471846
O      4.230820   -1.268946    2.397120
O      2.075234   -0.963584    0.752842
O     -3.666457   -1.598114   -0.025649
H     -6.548546   -0.117456    0.210786
H     -4.879522    0.458015    0.601168
H     -5.798069   -0.419369    1.831475
H     -4.819572   -3.654395    0.972047
H     -4.505402   -2.370304    2.154179
H     -6.235938   -2.717322    1.737210
H     -5.596352   -1.634469   -1.936149
H     -5.739473   -3.265018   -1.214945
H     -6.909811   -1.960127   -0.799592
H      6.183084   -1.771858    3.066994
H      5.295601   -0.535283    4.076193
H      4.847782   -2.240917    4.113651
H      0.332036    6.299651    0.265698
H      2.257497    5.242255   -0.765177
H     -1.547945    4.948491    1.093859
H      2.313345    2.831707   -1.093537
H     -1.568240    2.592871    0.712029
H      4.836724   -1.191786   -2.725220
H      2.602717   -1.018822   -1.724276
H      0.423092    1.802162   -2.515671
H      0.530650    0.062428   -2.451910
H     -1.874947    0.661597   -3.091352
H     -1.956202    1.698947   -1.548755
H      6.594341   -1.307873    1.165009
H     -1.016977   -1.903079   -0.054846
H      0.049544   -1.262327   -1.376676
H      0.822832   -0.340996    2.257310
H      0.337949   -1.805761    1.426495
H     -0.914988    0.334346    1.026006
H      1.568467    0.756599   -0.574000
