53

C     -5.107028   -3.000671   -0.182108
C     -0.182925   -3.914407    2.266205
C      7.100305   -0.521077    0.724021
C     -3.054662    3.012310   -0.456809
C     -2.538531    3.670420   -1.746775
C     -3.380148    1.613307   -0.870691
C     -1.168325    3.121968   -1.944171
C      2.671441    1.052077   -0.478212
C      2.189022   -0.424946    1.232520
C      3.963066    1.176200   -0.046947
C      3.524456   -0.308742    1.691532
C     -2.993530   -1.208873   -0.521846
C     -0.578465   -1.660874    0.681164
C      1.717210    0.223723    0.163876
C      4.415893    0.495451    1.048957
C     -2.275728    0.875876   -1.562358
C     -1.973732   -0.306026   -0.708310
C     -0.757359   -0.541250   -0.095975
C     -1.063503    1.623532   -1.928942
C     -2.843468   -2.337504    0.253623
C     -1.628262   -2.548801    0.848765
C      0.365825    0.325971   -0.379250
N      0.111620    1.268241   -1.238501
O      6.557721    2.052253    1.047180
O      6.249880    0.661386    3.019770
O     -3.859012   -3.242609    0.444965
O     -1.447372   -3.674139    1.634007
S      6.074103    0.698926    1.541290
H     -5.846933   -3.780923    0.094752
H     -4.995884   -2.932215   -1.283412
H     -5.518933   -2.027198    0.159047
H      0.001422   -3.094195    2.982007
H      0.612827   -3.910641    1.473275
H     -0.175444   -4.883064    2.769580
H      7.474477   -0.150011   -0.250521
H      6.461741   -1.409611    0.537267
H      7.938403   -0.834131    1.394291
H     -3.968782    3.494157   -0.106948
H     -2.251770    2.967513    0.304714
H     -2.474642    4.748315   -1.612797
H     -3.194078    3.346643   -2.573330
H     -3.760549    1.091598    0.055938
H     -4.309182    1.691480   -1.511024
H     -0.536391    3.557114   -1.110736
H     -0.750041    3.591118   -2.860297
H      2.401157    1.625818   -1.357125
H      1.570035   -1.008492    1.844575
H      4.634661    1.816855   -0.575192
H      3.844016   -0.855993    2.552660
H     -3.979405   -1.079270   -0.979605
H      0.343109   -1.920900    1.114892
H     -2.760760    0.404991   -2.476063
H     -0.847546    1.369321   -3.022927
