46

C     -4.391180   -1.467680   -0.101116
C     -5.072054    0.214377    1.524971
C     -4.925832    0.818641   -0.827092
C      6.046271    0.243190    0.446410
C      5.492857   -0.721226    1.265040
C      5.270356    1.095520   -0.304508
C      4.126369   -0.822430    1.322576
C      3.890413    0.983719   -0.238135
C      1.344507    1.241433    1.122405
C     -0.175769    1.285024    1.124931
C      0.397227    0.623410   -1.182560
C      0.649788   -1.760397   -0.750876
C      3.349377    0.019140    0.580907
C      1.387491   -0.415884   -0.757146
C      1.866960   -0.076504    0.631185
C     -1.928653    0.319139   -0.407075
C     -4.274806   -0.027538    0.261045
N     -0.604613    0.736479   -0.147067
O      1.534671   -2.762085   -0.359595
O     -2.190324   -0.140811   -1.543126
O     -2.950152    0.386184    0.510200
H     -5.217998   -1.582793   -0.831946
H     -3.483764   -1.890613   -0.571797
H     -4.674642   -2.085903    0.777789
H     -4.455699    0.156561    2.439434
H     -5.894139   -0.532991    1.651696
H     -5.564982    1.207904    1.525671
H     -5.963931    1.093694   -0.573986
H     -4.846247    0.243446   -1.773576
H     -4.273222    1.714001   -0.949668
H      7.134132    0.329112    0.395995
H      6.143452   -1.383471    1.849524
H      5.723331    1.854759   -0.948598
H      3.666686   -1.559831    1.947715
H      3.301205    1.651967   -0.826462
H      1.653300    1.341937    2.186354
H      1.783980    2.046243    0.530709
H     -0.608897    0.772332    1.983087
H     -0.438806    2.383067    1.158431
H     -0.041092    0.403954   -2.176048
H      0.945227    1.594628   -1.280636
H     -0.228458   -1.730378   -0.076371
H      0.334179   -1.945344   -1.810419
H      2.189198   -0.490693   -1.497262
H      1.537625   -0.891889    1.326199
H      2.436660   -2.471402   -0.646067
