48

C      3.504749   -1.128735   -0.734879
C      3.689317   -1.413249    1.615027
C     -1.152605   -1.924734   -1.740980
C      4.708468   -1.786561   -0.855472
C      4.874091   -2.059140    1.475938
C     -1.238108   -3.300149   -1.680941
C     -2.043116   -1.740599    0.415983
C     -2.451794    5.083178    0.423424
C     -3.679673    3.072531    0.252224
C     -0.107781    2.340014   -0.603586
C      2.989074   -0.940903    0.528805
C     -1.550072   -1.114777   -0.701419
C      5.413771   -2.260910    0.220407
C     -3.636829    4.410617    0.520108
C     -1.327415    3.102181   -0.208787
C     -1.744217   -3.906428   -0.530118
C     -1.267542    4.445651    0.056374
C     -2.143915   -3.122299    0.512070
C     -2.525646    2.384266   -0.119219
C     -0.287493    0.919324   -0.040366
C     -1.430406    0.335407   -0.837568
C      1.725076   -0.258825    0.767520
O      6.617285   -2.920783    0.127641
O     -4.819630    5.054511    0.888281
O     -1.804922   -5.275490   -0.528935
O     -0.102016    5.158071   -0.029633
O     -2.645411   -3.730057    1.651671
O      1.320364   -0.125922    1.946191
O     -2.585192    1.020225   -0.389964
O      0.921978    0.262637   -0.216678
H      2.948315   -0.756425   -1.558916
H      3.309839   -1.282370    2.639679
H     -0.747845   -1.503255   -2.668043
H      5.131952   -1.944246   -1.848959
H      5.432376   -2.436147    2.347355
H     -0.922635   -3.921298   -2.503759
H     -2.371486   -1.162736    1.265191
H     -2.412687    6.132515    0.632329
H     -4.601418    2.493614    0.315771
H     -0.123077    2.233973   -1.704685
H      0.830339    2.771753   -0.250189
H     -0.629055    1.028820    0.988645
H     -1.279158    0.662775   -1.894244
H      7.106919   -3.126330   -0.721442
H     -4.777167    6.050709    1.085620
H     -2.142830   -5.836506    0.222934
H      0.763571    4.737353   -0.295694
H     -2.736344   -4.721250    1.765290
