88

C      4.383975   -0.466760    1.044438
C      3.086373   -0.285321   -0.967810
C     -0.697027   -2.034751    2.019281
C      5.494764   -0.844485    0.281197
C      4.211417   -0.664351   -1.701245
C     -0.841919   -3.389887    2.235172
C     -2.599400   -2.072097    0.659685
C     -2.392207    4.051102   -1.812150
C     -2.853076    1.752814   -2.056890
C     -0.548262    2.329817    0.912561
C      3.201007   -0.194992    0.398700
C     -1.552982   -1.335385    1.238113
C      5.414932   -0.944568   -1.085960
C     -3.035564    3.039788   -2.505545
C     -1.417341    2.492336   -0.266618
C     -1.874061   -4.113231    1.663649
C     -1.596344    3.799454   -0.713832
C     -2.756439   -3.418461    0.864899
C     -2.053128    1.500144   -0.952948
C     -0.315761    0.854733    1.241319
C     -1.533438    0.075826    0.908943
C      2.056204    0.196610    1.211009
O      6.538188   -1.323437   -1.823170
O     -3.831579    3.329212   -3.610145
O     -2.011121   -5.488686    1.889927
O     -0.991007    4.879809   -0.082034
O     -3.790233   -4.151252    0.294594
O      2.129236    0.288446    2.464914
O     -1.861661    0.191943   -0.488998
O      0.864595    0.474675    0.608456
C     -0.972583   -0.047936   -0.032795
C      0.456523    0.299833    0.056431
O      0.880150    1.469573   -0.032795
O      1.382009   -0.717710    0.248992
C     -0.958359   -0.001901    0.150586
C      0.449195    0.248506   -0.184601
O      0.765339    1.237971   -0.857235
O      1.397744   -0.632370    0.261380
C     -0.978558   -0.049751   -0.031892
C      0.459664    0.248093    0.131175
O      0.873164    1.457310    0.110095
O      1.437807   -0.715077    0.312587
C     -0.977109   -0.079417    0.016407
C      0.460951    0.229595    0.001108
O      0.803032    1.435249   -0.122189
O      1.455863   -0.729731    0.114521
C     -0.987986   -0.073433   -0.007632
C      0.447335    0.237646   -0.003235
O      0.809888    1.444140    0.078308
O      1.450837   -0.708727   -0.083155
H      4.521599   -0.409290    2.115256
H      2.188082   -0.083743   -1.511759
H      0.117830   -1.512766    2.488929
H      6.441935   -1.067544    0.737197
H      4.183069   -0.753512   -2.785995
H     -0.155829   -3.947675    2.860419
H     -3.333275   -1.597436    0.019781
H     -2.534193    5.055784   -2.161736
H     -3.343888    0.950541   -2.580956
H     -1.011014    2.877533    1.754984
H      0.420806    2.818552    0.698719
H     -0.154881    0.844368    2.332546
H     -2.381541    0.553559    1.486490
H      7.194247   -0.661142   -2.178340
H     -3.355019    3.333089   -4.507752
H     -2.776959   -5.987526    1.456910
H     -0.408670    4.703257    0.720402
H     -4.440441   -3.645094   -0.292623
H     -1.531630    0.722395   -0.572337
H     -1.434693   -0.148794    0.973062
H     -1.118746   -1.020964   -0.539301
H      2.338970   -0.556397   -0.101256
H     -1.645086    0.495034   -0.557872
H     -1.189990   -1.107031    0.168369
H     -1.136599    0.397392    1.171762
H      2.317756   -0.637602   -0.152389
H     -1.145212   -0.844263   -0.798382
H     -1.482533    0.864747   -0.416983
H     -1.479815   -0.327102    0.917811
H      2.315483   -0.633958   -0.224412
H     -1.523847    0.674719   -0.590964
H     -1.395863   -0.001861    1.043050
H     -1.229677   -1.082801   -0.363908
H      2.406651   -0.445753   -0.098025
H     -1.184378   -1.027630   -0.533142
H     -1.433502   -0.124876    1.014427
H     -1.535312    0.718427   -0.577374
H      2.433118   -0.465546    0.111803
