61

C      5.267966   -1.871934   -0.955135
C      3.639935   -3.583094   -0.182134
C      4.533561   -1.925684    1.391413
C     -3.139444   -3.203158   -3.712921
C     -2.833062    4.649589    2.658474
C     -2.591492    5.059834    1.378379
C     -2.132981    3.560786    3.139931
C     -1.672756    4.388334    0.616151
C     -1.221849    2.903104    2.368404
C     -3.455702   -1.978629    1.151673
C     -2.862651   -0.898324    0.489201
C      1.393562    2.789240    0.772423
C      2.306626    2.381702   -0.393297
C     -3.594341   -3.109152   -0.896934
C     -4.439878   -4.213319    1.138314
C      0.753962    0.551000   -0.941141
C     -1.552989    1.306647   -1.076216
C     -3.835500   -3.110279    0.470928
C     -0.956792    3.293744    1.072818
C     -0.349236    1.227911   -0.167395
C     -0.010389    2.652111    0.186509
C     -2.624946   -0.900859   -0.862623
C     -3.017996   -2.061181   -1.541897
C      3.143536    0.082172   -0.247658
C      4.095669   -2.145673   -0.060036
N     -4.941303   -5.101800    1.697423
N      2.070913    0.959511   -0.529840
O      4.265454    0.515076    0.107611
O     -2.798952   -2.105545   -2.898939
O     -2.049026    0.129238   -1.524710
O      2.997184   -1.301264   -0.352788
H      6.085182   -1.344866   -0.403452
H      4.958279   -1.168921   -1.775166
H      5.693543   -2.801747   -1.365190
H      3.309429   -3.939297    0.824905
H      2.783344   -3.642890   -0.883272
H      4.458278   -4.249509   -0.547297
H      5.616495   -1.691981    1.434200
H      4.324633   -2.816319    2.016982
H      3.922530   -1.089295    1.823419
H     -4.222068   -3.393084   -3.568210
H     -2.605990   -4.118977   -3.408161
H     -2.923024   -3.017830   -4.765140
H     -3.549943    5.148265    3.300355
H     -3.129429    5.916945    0.970233
H     -2.333987    3.237622    4.171238
H     -1.519430    4.764511   -0.407101
H     -0.682027    2.058357    2.747520
H     -3.627520   -1.943308    2.217566
H     -2.633717   -0.055249    1.136204
H      1.479850    2.036940    1.596351
H      1.545962    3.819053    1.078379
H      3.361417    2.637068   -0.191603
H      1.930408    2.865416   -1.323954
H     -3.910355   -4.030783   -1.411654
H      0.710653   -0.553564   -0.835760
H      0.677980    0.752073   -2.030774
H     -1.231550    1.907069   -1.997075
H     -2.328658    1.976395   -0.603416
H     -0.567819    0.598834    0.681258
H      0.020453    3.198970   -0.777370
