46

C      4.821518   -0.544212    0.295045
C      4.353997   -0.731643   -2.090458
C      4.414366    1.460855   -1.021849
C     -4.974685    2.091204   -1.099644
C     -5.443881    0.982487   -0.433507
C     -3.628591    2.352311   -1.084535
C     -4.564775    0.158657    0.232328
C     -2.740069    1.511797   -0.406350
C     -1.482752    0.228439    2.041558
C     -0.143718    0.752118    1.701336
C     -0.155439   -0.569838   -0.452802
C     -1.146409   -2.665320    0.406780
C     -3.194116    0.397880    0.265264
C     -1.420313   -1.227455   -0.022944
C     -2.233547   -0.486365    0.984563
C      1.916090    0.393192    0.441127
C      4.001651    0.034899   -0.826683
N      0.515463    0.192955    0.572775
O     -2.348279   -3.235463    0.797084
O      2.587262    1.046773    1.288433
O      2.617405   -0.118221   -0.623443
H      5.801321   -0.863109   -0.154387
H      4.370342   -1.480883    0.705584
H      5.080776    0.186502    1.078730
H      5.189386   -0.272697   -2.633961
H      3.494358   -0.798724   -2.777282
H      4.641902   -1.790791   -1.861442
H      3.844071    2.166969   -0.366432
H      5.477081    1.555525   -0.716491
H      4.366342    1.780876   -2.089318
H     -5.639200    2.773524   -1.642260
H     -6.490140    0.762028   -0.433679
H     -3.239497    3.204737   -1.592745
H     -4.912598   -0.730483    0.770524
H     -1.676979    1.748690   -0.413315
H     -1.361094   -0.464730    2.926545
H     -2.136738    1.053551    2.452222
H      0.553878    0.693741    2.563622
H     -0.250367    1.860732    1.506163
H      0.519932   -1.407040   -0.811446
H     -0.322542    0.037915   -1.385509
H     -0.749091   -3.192482   -0.471834
H     -0.471294   -2.698499    1.284086
H     -2.058070   -1.334391   -0.950803
H     -2.889994   -1.275607    1.471402
H     -2.892964   -3.540402    0.032023
