64

C     -7.768794   -0.198887    1.255548
C     -5.970093    2.029963    1.338801
C     -6.263683   -0.412260    1.259665
C      8.834799    1.339849    0.769586
C      8.164673    0.474178    1.597848
C      8.223852    1.940617   -0.312145
C     -2.191227   -3.595466   -2.776991
C     -0.834676   -3.749327   -2.953072
C      6.827620    0.225745    1.296255
C      6.910972    1.666861   -0.568921
C     -2.717761   -2.578399   -2.003503
C      0.038697   -2.871613   -2.346946
C      2.683271   -0.573314    0.596095
C      2.658842    1.011214   -1.130308
C      4.160061   -0.427987    0.884533
C      4.149132    1.130412   -1.143530
C      0.826797    0.958912    0.438742
C     -5.630311    0.759431    0.592623
C      6.181815    0.802658    0.229668
C     -1.877583   -1.696891   -1.393031
C     -0.514262   -1.870097   -1.583640
C     -0.099367    0.001638   -0.223820
C     -4.139954    0.668094    0.453829
C     -3.438038    0.638435    1.751504
C     -2.347192   -0.654991   -0.603705
N     -2.587564    1.543352    2.104826
N      0.315779   -1.007796   -0.986712
N     -1.402595    0.162506   -0.045076
N     -3.720173   -0.433644   -0.376844
N      2.195182    0.708362    0.180823
N      4.809098    0.498167   -0.014895
O     -3.667743   -0.382655    2.662874
H     -8.226529   -0.564811    0.301544
H     -8.250566   -0.768594    2.080347
H     -8.030344    0.873318    1.346440
H     -5.140335    2.744489    1.173835
H     -6.000580    1.843025    2.436008
H     -6.892264    2.518642    0.960599
H     -6.065616   -1.372546    0.787037
H     -5.979294   -0.408132    2.352785
H      9.882444    1.526099    1.017072
H      8.628752    0.005895    2.435269
H      8.828227    2.610981   -0.913239
H     -2.859837   -4.299288   -3.264451
H     -0.473111   -4.578492   -3.580483
H      6.291243   -0.465596    1.956548
H      6.439845    2.138124   -1.414566
H     -3.781075   -2.466650   -1.872103
H      1.096834   -3.016799   -2.502862
H      2.609461   -1.343974   -0.222920
H      2.131176   -0.885876    1.506239
H      2.194269    1.920344   -1.555995
H      2.388930    0.133704   -1.787229
H      4.692285   -1.409075    0.810854
H      4.304904   -0.015699    1.926222
H      4.591599    0.793672   -2.113493
H      4.437220    2.221427   -1.075066
H      0.591983    1.999199    0.186233
H      0.650303    0.850189    1.533375
H     -6.080915    0.857804   -0.416565
H     -3.818173    1.613345   -0.071925
H     -2.405148    2.314513    1.433115
H     -4.436954   -1.035105   -0.786115
H     -3.128308   -0.441200    3.525841
