64

C     -7.625832   -0.419974   -1.551414
C     -6.289403   -0.578416    1.031653
C     -6.129639   -0.218197   -1.414134
C      8.483580    1.082680   -0.919386
C      8.018987   -0.029574   -1.583367
C      7.741450    1.545338    0.138184
C     -2.050964    4.269823    0.328259
C     -0.682107    4.433253    0.377863
C      6.858862   -0.666176   -1.216440
C      6.559376    0.893588    0.509309
C     -2.600936    3.011579    0.204802
C      0.144048    3.330349    0.303506
C      3.070817   -2.346077   -0.114505
C      2.646438   -0.168710    0.860303
C      4.462832   -1.985986   -0.572688
C      4.060800   -0.511362    1.356383
C      0.846486   -1.462350   -0.095656
C     -5.622124   -1.019290   -0.233617
C      6.093273   -0.216186   -0.151015
C     -1.759443    1.921963    0.131938
C     -0.370295    2.061298    0.180000
C     -0.019422   -0.274117   -0.013730
C     -4.131725   -0.983591   -0.182080
C     -3.602019   -1.861652    0.880683
C     -2.224355    0.632659    0.007954
N     -2.810750   -2.842218    0.645839
N      0.427428    0.979963    0.106731
N     -1.348888   -0.416828   -0.060506
N     -3.618216    0.381086   -0.051814
N      2.244056   -1.187413   -0.027407
N      4.903883   -0.847758    0.241533
O     -3.978550   -1.612206    2.190625
H     -8.188450    0.411621   -1.073727
H     -7.907600   -1.376505   -1.045891
H     -7.895891   -0.419391   -2.629674
H     -7.301726   -0.182639    0.767970
H     -5.692416    0.129589    1.631138
H     -6.488762   -1.455735    1.704654
H     -5.879748    0.842861   -1.348903
H     -5.668924   -0.638250   -2.340635
H      9.400263    1.537464   -1.255147
H      8.609893   -0.402290   -2.429594
H      8.087230    2.429537    0.685398
H     -2.703897    5.152031    0.388388
H     -0.311887    5.437714    0.474309
H      6.499146   -1.539834   -1.741949
H      6.054989    1.341743    1.353174
H     -3.694852    2.898757    0.166990
H      1.220740    3.447831    0.341636
H      2.588365   -3.072505   -0.810033
H      3.179582   -2.865027    0.876495
H      2.013272   -0.142561    1.761958
H      2.774051    0.818795    0.370496
H      4.470657   -1.694514   -1.659111
H      5.193267   -2.796026   -0.389092
H      4.013555   -1.421951    2.009458
H      4.465626    0.329478    1.944934
H      0.591978   -2.139258    0.748732
H      0.661194   -2.044165   -1.028937
H     -5.925112   -2.071086   -0.419709
H     -3.746823   -1.363614   -1.150687
H     -2.473961   -3.421761    1.438608
H     -4.288184    1.158114   -0.004158
H     -3.353222   -1.783923    2.980736
