35

C     -5.524714    1.410970    0.533587
C      4.880142    0.142156    0.587750
C     -2.956181   -1.768206   -0.378732
C      3.660331   -0.464548    0.486535
C     -1.614440   -1.524649   -0.678888
C      5.006346    1.479862    0.325378
C     -3.773899   -0.703934   -0.083488
C      2.666775    1.555484   -0.133533
C     -1.992579    0.829654   -0.369940
C      2.483828    0.218349    0.117537
C     -1.145706   -0.239553   -0.672685
C      3.904091    2.186818   -0.034484
C     -3.318165    0.600496   -0.072292
C      1.211721   -0.512251    0.048975
C      0.290231    0.034018   -0.994987
C      1.219909   -1.894372   -1.733076
Br     4.078252    4.054687   -0.401204
N      1.541349   -1.838823   -0.494638
O      1.428662   -3.052743   -2.500000
O     -4.169859    1.659038    0.230635
O      0.668599   -0.693234   -2.146382
H     -6.029048    2.365148    0.766560
H     -5.630388    0.756810    1.427201
H     -6.065612    0.920520   -0.284915
H      5.751768   -0.440478    0.877537
H     -3.313390   -2.788123   -0.387278
H      3.607573   -1.520915    0.702612
H     -0.984981   -2.402086   -0.909863
H      6.000977    1.904175    0.422789
H     -4.815159   -0.851582    0.153287
H      1.853029    2.194895   -0.414338
H     -1.578686    1.849535   -0.375045
H      0.723566   -0.616970    1.043143
H      0.445919    1.125776   -1.139530
H      1.489738   -3.975924   -2.071171
