51

C      1.823870   -0.801701    2.890228
C      4.029949   -1.250824    1.966119
C     -7.837533    0.325823   -0.023623
C     -7.408972   -0.541990   -0.996776
C     -6.904557    0.905889    0.797554
C     -6.079410   -0.827282   -1.150328
C     -5.551112    0.603913    0.627540
C      4.287869   -0.228410   -2.476380
C     -1.673730    1.337243    1.815164
C      0.414559   -1.449103   -0.956612
C      2.556809   -1.153850    1.641038
C     -5.092614   -0.255693   -0.331766
C      3.895363    0.055799   -1.042252
C     -1.352703   -0.515505   -0.158165
C      3.062330    1.317705   -0.951555
C      2.456593    1.087088    0.444994
C     -2.645117   -0.054969    0.184599
C     -0.247279   -0.032057    0.501625
C      2.245094   -0.369096    0.439913
N     -2.733343    0.853123    1.160245
N     -0.465349    0.879856    1.465554
N     -0.915197   -1.385738   -1.049940
N     -3.749453   -0.574715   -0.518240
N      0.872360   -0.621326   -0.001841
O      5.165151    0.751542   -2.955390
O      3.953480    2.389315   -0.919773
O      3.354633    1.611884    1.328459
O      3.042942   -0.910696   -0.600928
H      1.723599    0.267478    3.089680
H      2.284615   -1.355709    3.760431
H      0.797977   -1.220435    2.811364
H      4.570165   -1.644769    1.070807
H      4.210478   -1.921403    2.840540
H      4.366549   -0.242143    2.272639
H     -8.901444    0.564203    0.111220
H     -8.172861   -0.988719   -1.635500
H     -7.193858    1.606466    1.591121
H     -5.770984   -1.514964   -1.925812
H     -4.905479    1.113546    1.327882
H      4.822058   -1.199621   -2.498988
H      3.402999   -0.266392   -3.127551
H     -1.810824    2.083490    2.609196
H      1.029704   -2.086771   -1.573891
H      2.260735   -2.228744    1.414659
H      4.802845    0.199732   -0.430753
H      2.298273    1.401705   -1.721166
H      1.500365    1.683308    0.415230
H     -3.547374   -1.294927   -1.281423
H      5.927454    0.777293   -2.305601
H      3.598608    3.207441   -1.329645
H      4.201765    1.913709    0.949340
