40

C      2.851943    2.141237    1.120517
C      2.920790   -0.665793    0.557960
C      1.694492    1.485037    0.338708
C     -2.866693   -2.452244    1.945736
C     -3.994976   -1.701159    2.141188
C     -1.831903   -1.987719    1.169181
C     -4.121492   -0.461957    1.565004
C     -2.270219    3.046532   -1.205992
C      2.294056    0.339121   -0.420012
C     -1.912552   -0.757583    0.573804
C     -3.076178   -0.005229    0.787017
C     -2.155661    1.696407   -0.567951
C      1.341996   -0.432463   -1.267281
C      2.005823   -1.519756   -2.026707
C     -0.885969   -0.270387   -0.208996
Cl    -3.020420    2.873088   -2.820075
N      2.000832   -1.578034   -3.301265
N     -3.135303    1.207492    0.191237
N     -1.057962    0.954098   -0.752382
N      0.285288   -1.024610   -0.478435
O      2.656790   -2.508955   -1.287279
H      2.843130    1.737903    2.174431
H      2.693230    3.218564    1.126370
H      3.797445    1.928052    0.594860
H      3.181512   -0.137061    1.472965
H      2.207346   -1.465880    0.754810
H      3.854401   -1.062777    0.101660
H      1.308961    2.265268   -0.322994
H      0.935673    1.154406    1.072286
H     -2.740083   -3.446216    2.394907
H     -4.782188   -2.103392    2.757218
H     -0.933763   -2.582501    1.014040
H     -4.987033    0.167754    1.687263
H     -1.256792    3.437239   -1.367742
H     -2.872437    3.709210   -0.577343
H      3.127505    0.702631   -1.097634
H      0.886002    0.258947   -2.041599
H      1.522552   -0.851565   -3.850658
H      0.459564   -2.001172   -0.148553
H      3.032291   -3.306530   -1.798266
