26

C      3.649798    0.747518    0.030715
C      2.822704    0.096663    1.115236
C     -0.900682    0.977252   -1.111217
C     -2.198715    0.994138   -0.832416
C     -1.329575   -0.902733    0.181607
C     -0.365768   -0.368398   -0.888072
C     -2.648625   -0.365991   -0.390772
C      1.025993   -0.392911   -0.410393
N     -3.664116   -0.284685    0.618715
O      1.871578   -0.986767   -1.129947
O      1.442676    0.196041    0.772574
Cl     0.692304    0.000000    0.000000
H      4.221336    1.613104    0.451098
H      4.318171    0.032682   -0.486536
H      2.976832    1.180922   -0.748638
H      3.058471   -0.993451    1.084937
H      3.047734    0.504196    2.099594
H     -0.335174    1.844992   -1.453653
H     -2.888401    1.830266   -0.893190
H     -1.317003   -1.991009    0.228484
H     -1.062185   -0.392837    1.113185
H     -0.502159   -0.955257   -1.807360
H     -2.908731   -1.010299   -1.247762
H     -4.579892   -0.152718    0.129117
H     -3.734267   -1.220716    1.091255
H     -0.692304    0.000000    0.000000
