55

C      1.082438    1.871678   -1.901973
C     -5.241554   -2.845540    1.664859
C     -5.147228   -2.963276    0.295704
C     -4.365485   -2.033228    2.323509
C     -4.163478   -2.256427   -0.405712
C     -3.391564   -1.335346    1.615899
C     -2.545855    3.018680    0.510256
C     -4.332849    1.538636    0.128634
C     -3.428762    4.036154    0.804730
C     -5.232456    2.569679    0.427182
C      4.505754    0.338194    0.027173
C      6.160825   -1.177867   -0.737693
C      5.542644    0.864582    0.997654
C      7.084713   -0.735380    0.373728
C     -0.911367   -1.355903   -0.143313
C     -3.275094   -1.434576    0.249003
C     -2.973805    1.753555    0.167370
C     -4.791939    3.829061    0.768326
C     -2.257463   -0.711814   -0.517891
C     -2.016234    0.672326   -0.149958
C      1.283540   -0.330609   -0.984992
Cl    -5.912081    5.132800    1.145330
N      1.818635    0.632397   -1.653950
N     -0.731858    0.882934   -0.128746
N      2.096491   -1.503468   -0.800169
N      4.799204   -1.038869   -0.251019
N     -0.030384   -0.256078   -0.454361
O      3.974001   -3.067318   -1.716251
O      3.791062   -0.802539   -2.693244
O      6.834639    0.609119    0.606478
S      3.691093   -1.613091   -1.431309
H      1.712774    2.498504   -2.566260
H      0.134621    1.683113   -2.445920
H      0.919180    2.397415   -0.930249
H     -6.022304   -3.409670    2.199738
H     -5.848665   -3.609296   -0.200763
H     -4.456319   -1.954169    3.400021
H     -4.098103   -2.355110   -1.474135
H     -2.733641   -0.712150    2.202638
H     -1.479114    3.199289    0.543907
H     -4.698099    0.556161   -0.139235
H     -3.101062    5.033640    1.075282
H     -6.293620    2.370016    0.388220
H      4.497493    0.938112   -0.902178
H      3.528680    0.378481    0.546608
H      6.297855   -0.479003   -1.595819
H      6.306134   -2.222772   -1.030976
H      5.308594    0.490691    2.022491
H      5.422765    1.972045    1.042874
H      8.157094   -0.832798    0.098936
H      6.826370   -1.334429    1.277634
H     -0.917244   -1.471910    0.954504
H     -0.730526   -2.262193   -0.708790
H     -2.361343   -0.866285   -1.617267
H      1.712896   -2.296149   -0.276516
