34

C      1.941839    1.047392    0.998854
C      1.698050   -0.684259   -0.602373
C      3.315153    1.094768    0.752919
C      3.060516   -0.674229   -0.881651
C     -0.626166   -1.273994    1.098832
C     -1.695200   -2.042217    0.395800
C     -2.229688   -0.330294   -1.062081
C     -1.380124    1.919392   -0.676026
C      1.144663    0.167387    0.327874
C     -1.008953    0.431264   -0.719530
C      3.834345    0.238142   -0.174828
C     -0.338382    0.067762    0.547154
F      5.157408    0.271545   -0.423398
N     -2.754988   -1.078351    0.057175
O     -2.364896    2.145337    0.285002
O     -0.002023    0.398393   -0.000000
H      1.484854    1.708068    1.726385
H      1.108345   -1.408051   -1.168181
H      3.940068    1.792628    1.286554
H      3.489033   -1.345221   -1.612946
H      0.288662   -1.937099    1.120960
H     -0.930176   -1.217165    2.186519
H     -2.098466   -2.838046    1.031585
H     -1.269065   -2.449393   -0.566831
H     -3.053439    0.283124   -1.482935
H     -2.004494   -1.094191   -1.861751
H     -0.439364    2.435800   -0.355448
H     -1.696546    2.280049   -1.675449
H     -0.295552    0.351457   -1.591613
H     -0.577437    0.840367    1.335440
H     -3.612216   -1.574617   -0.280631
H     -2.087786    2.872645    0.868261
H      0.791465   -0.198486    0.000000
H     -0.789441   -0.199907   -0.000000
