35

C      5.180113    0.174869    0.667138
C     -3.849035    1.119021    0.970167
C      1.749764    2.182964   -0.710388
C     -3.151424    0.233271    0.161780
C      0.625535    1.439953   -1.085275
C     -3.394566    1.350421    2.229551
C      2.879799    1.501982   -0.255447
C     -1.578151   -0.167051    1.867370
C      1.739237   -0.574783   -0.563401
C     -2.018905   -0.418203    0.586932
C      0.609145    0.065626   -1.016141
C     -2.266289    0.723128    2.701136
C      2.875322    0.125295   -0.181787
C     -1.273516   -1.350167   -0.244830
C     -0.579704   -0.663929   -1.416010
C     -1.528648   -2.534394   -2.104642
Br    -1.679047    1.086322    4.470256
N     -2.082911   -2.295391   -0.966923
O     -2.060727   -3.419563   -3.064156
O      4.015068   -0.524491    0.275009
O     -0.343621   -1.791731   -2.230206
H      5.023671    0.811561    1.554488
H      5.400385    0.889289   -0.178708
H      6.053783   -0.483370    0.726857
H     -4.739851    1.621440    0.613609
H      1.769029    3.263158   -0.762366
H     -3.513910    0.050099   -0.839632
H     -0.232664    1.974517   -1.431726
H     -3.948886    2.050627    2.863926
H      3.760211    2.080216    0.038470
H     -0.700283   -0.622612    2.306123
H      1.769005   -1.654886   -0.493303
H     -0.530898   -1.960581    0.325338
H     -1.349950   -0.061653   -1.918590
H     -2.627079   -4.220956   -2.771778
