78

C      5.782442    3.300296    0.681269
C      5.717018    1.251191    2.022777
C      7.000053    1.307171   -0.057220
C      2.980283    1.547639   -3.459542
C      4.319696   -2.307406   -0.032302
C     -6.241313    4.665155    0.211111
C     -5.072064    4.015897    0.516239
C     -7.449080    4.025471    0.409603
C     -1.051696   -4.315405   -1.730275
C      0.011759   -4.433619   -0.670954
C     -5.115046    2.730140    1.018432
C     -7.480892    2.742592    0.911146
C     -1.389885   -2.857455   -1.965344
C     -0.269363   -3.662854    0.564616
C     -1.149622   -1.599391    1.590957
C     -2.574198   -1.219596    1.711065
C     -1.526764    0.152705   -1.099530
C      0.826243    0.593472   -1.552517
C      1.629054   -1.669308   -0.217030
C     -6.351458    0.707451    1.753422
C     -6.312168    2.083156    1.220087
C     -0.105782   -0.245868   -0.961639
C     -1.866134   -2.308395   -0.661659
C      0.300141   -1.378518   -0.293365
C     -2.506183   -0.939691   -0.772176
C      2.177490    0.315740   -1.485929
C      2.577066   -0.839735   -0.803239
C      4.297859    1.622847   -1.379741
C     -4.429533   -0.121319    0.571640
C      5.723106    1.797979    0.619717
C     -0.718164   -2.249013    0.324491
N      3.161112    1.157599   -2.080698
N     -3.177749   -0.751783    0.491001
O      5.120080    2.359565   -1.974353
O     -4.972843    0.292216   -0.479579
O      3.926078   -1.141076   -0.722180
O     -5.105684    0.070879    1.761891
O      4.576563    1.320289   -0.061154
H      5.454175    3.625798    1.690417
H      6.839933    3.634070    0.575270
H      5.189458    3.787503   -0.123779
H      6.288577    0.287967    2.037616
H      6.254752    1.920744    2.747504
H      4.690037    1.039710    2.393472
H      6.858456    0.298430   -0.510818
H      7.292152    2.072407   -0.810573
H      7.779580    1.273352    0.728559
H      2.545469    0.687565   -4.013445
H      3.960685    1.818511   -3.899991
H      2.292992    2.424794   -3.461850
H      3.945559   -2.220652    0.999118
H      5.407756   -2.463135   -0.055854
H      3.812317   -3.221157   -0.459902
H     -6.187371    5.680209   -0.184986
H     -4.099962    4.479720    0.376794
H     -8.373097    4.539570    0.168673
H     -2.009064   -4.807467   -1.423077
H     -0.671098   -4.775882   -2.646314
H      0.977635   -4.171795   -1.123666
H      0.072285   -5.519221   -0.389436
H     -4.170876    2.251198    1.249418
H     -8.462291    2.273965    1.052365
H     -0.475201   -2.298372   -2.278917
H     -2.201501   -2.742324   -2.705678
H     -1.052791   -4.167982    1.201310
H      0.630953   -3.647082    1.199501
H     -0.937741   -2.311824    2.441866
H     -0.522127   -0.703805    1.855252
H     -2.654726   -0.361424    2.440603
H     -3.157922   -2.034705    2.190331
H     -1.744045    1.008406   -0.416694
H     -1.654549    0.538225   -2.133196
H      0.548079    1.492664   -2.086925
H      2.031825   -2.544572    0.292099
H     -7.103313    0.154277    1.118340
H     -6.807514    0.677540    2.781683
H     -2.627077   -2.992734   -0.240179
H     -3.220830   -1.001509   -1.625571
