64

C     -7.972977   -0.095482   -0.048143
C     -6.935712   -1.825998    1.332935
C     -7.241284    0.419874    2.217085
C      6.368893   -1.092217   -0.786890
C      7.379650   -1.110508    0.326645
C      5.961541    0.347074   -1.088975
C      7.261993    0.070785    1.243562
C      1.274645   -0.573688    0.863626
C      2.491920   -1.121667    1.479458
C     -1.687206    0.462740    0.381516
C     -1.549701   -0.773983   -1.770549
C     -3.029949    1.060861   -0.062610
C     -2.976564   -0.386153   -2.085583
C      5.240933    0.956959    0.084388
C      1.447845    0.315199   -0.292735
C      5.835033    0.526126    1.390538
C      3.737926   -0.422611    1.126930
C      3.831515    0.448595    0.178871
C      2.661727    0.869953   -0.604428
C      0.334354    0.638446   -1.057452
C      1.687855    2.034408   -2.379330
C     -4.945998   -0.390143   -0.578165
C     -6.885745   -0.364139    0.947489
N      1.831107    2.863216   -3.374677
N      2.776599    1.720237   -1.635618
N      0.505377    1.500682   -2.087846
N     -0.957928    0.122266   -0.810048
N     -3.659093    0.084096   -0.917176
O     -5.525888   -1.243112   -1.300980
O      5.031957   -0.565514    1.739043
O     -5.617942    0.053223    0.545246
H     -8.841630   -0.770321    0.201930
H     -7.628692   -0.247071   -1.077417
H     -8.335149    0.956457    0.026153
H     -6.576268   -2.493494    0.527023
H     -8.024788   -2.071941    1.470365
H     -6.451306   -2.024402    2.313687
H     -6.345415    0.327410    2.882236
H     -8.141429   -0.008228    2.657037
H     -7.335792    1.489279    1.955374
H      5.496120   -1.716919   -0.566767
H      6.822067   -1.493279   -1.738159
H      8.390123   -1.079475   -0.159974
H      7.280662   -2.073428    0.897212
H      6.895805    0.919478   -1.237508
H      5.352620    0.381898   -1.991339
H      7.890592    0.910333    0.893690
H      7.598583   -0.261965    2.252262
H      0.733884    0.010718    1.683277
H      0.584280   -1.404927    0.530475
H      2.587099   -2.227975    1.193522
H      2.374931   -1.091389    2.607205
H     -1.163043    1.227996    0.997494
H     -1.908563   -0.465557    0.937167
H     -0.954803   -0.788726   -2.708962
H     -1.588528   -1.774584   -1.288268
H     -2.777155    1.993410   -0.629135
H     -3.658970    1.311268    0.817580
H     -2.986010    0.417712   -2.853840
H     -3.492037   -1.290708   -2.471046
H      5.266410    2.067142    0.003856
H      5.796446    1.340900    2.146191
H      2.755521    3.275748   -3.596630
H      3.709554    2.125113   -1.845035
