54

C     -8.656593    0.819135    2.077647
C     -8.183285   -0.580551    1.823032
C      8.767937    0.451915    0.941574
C      8.381875    0.694384    2.248310
C      7.862631    0.306754   -0.079840
C      2.514315    1.519329   -1.090464
C      2.030790    0.258649   -1.407265
C      7.015572    0.785529    2.482600
C      6.532138    0.403385    0.193394
C      3.402301    1.677011   -0.035251
C     -1.809945   -0.360514   -0.143647
C     -2.558879   -0.814032   -2.323250
C     -0.604796   -0.998649   -0.419735
C     -1.363871   -1.447123   -2.598192
C      3.310396   -0.654193    0.363467
C     -4.068900    1.567820    0.140318
C      1.935887   -2.220464   -0.979219
C      2.433382   -0.838200   -0.672505
C     -2.807910   -0.255852   -1.087083
C     -0.363306   -1.553211   -1.655771
C      6.080573    0.644510    1.478658
C      3.815450    0.593351    0.709573
C     -4.101971    0.430292   -0.787933
C     -4.684039    0.242360    0.592998
C     -6.162927    0.203833    0.725348
N      0.879678   -2.208583   -1.948515
O     -6.890496    0.864007   -0.060564
O     -6.761197   -0.548887    1.702587
O      4.707372    0.745998    1.770707
H     -7.842363    1.340970    2.649544
H     -9.582941    0.795038    2.717126
H     -8.818707    1.380991    1.155485
H     -8.520982   -1.313148    2.554880
H     -8.603360   -0.888445    0.824342
H      9.823987    0.373234    0.713479
H      9.118442    0.804816    3.035425
H      8.147941    0.116156   -1.110760
H      2.228863    2.413393   -1.636973
H      1.341734    0.156876   -2.230857
H      6.702563    0.974958    3.501180
H      5.761658    0.295544   -0.586026
H      3.778070    2.668617    0.208310
H     -1.982585    0.069227    0.831634
H     -3.355236   -0.728321   -3.069796
H      0.174912   -1.076447    0.340852
H     -1.185034   -1.882754   -3.582042
H      3.660832   -1.479783    0.974759
H     -3.189850    1.858229    0.715669
H     -4.808732    2.395287    0.011330
H      1.629781   -2.670935   -0.011083
H      2.816543   -2.761865   -1.379283
H     -4.861904    0.478419   -1.592022
H     -4.128424   -0.362426    1.319379
H      1.042608   -2.685637   -2.860685
