48

C     -7.482424    2.296403   -0.618824
C     -7.828679    0.968243   -0.366363
C     -6.222997    2.588362   -1.080058
C     -3.402249   -2.682509    1.624182
C     -2.153481   -2.116728    1.781765
C     -6.923775   -0.063271   -0.572775
C     -5.324836    1.553345   -1.283805
C     -4.257954   -2.245231    0.627740
C     -2.638992   -0.679374   -0.064335
C      6.927400   -0.396477   -0.676758
C      4.082176   -1.161081   -0.567636
C      2.303964    0.226198    1.024233
C     -0.429579   -0.501107    1.099943
C     -1.765504   -1.108070    0.933805
C     -5.661122    0.236818   -1.035959
C     -3.891925   -1.225803   -0.245369
C      5.972885    0.316650    0.187176
C      4.554579   -0.110408    0.185001
C      6.515111    1.066899   -1.013027
C      3.633563    0.567059    0.975487
C      2.748351   -1.542467   -0.551405
C      1.866395   -0.847644    0.243753
C      7.529369    2.099720   -0.826567
F      4.028969    1.622070    1.750861
F      2.267106   -2.572302   -1.284554
N      0.502093   -1.238790    0.260052
O      8.367107    2.005961    0.093796
O      7.574919    3.192942   -1.665585
O     -4.753508   -0.790136   -1.243834
H     -8.227990    3.059747   -0.440135
H     -8.801238    0.717454   -0.007762
H     -5.921568    3.604192   -1.285788
H     -3.669294   -3.474656    2.313362
H     -1.458997   -2.429915    2.545456
H     -7.169444   -1.104454   -0.383647
H     -4.322520    1.749805   -1.647267
H     -5.229654   -2.700571    0.521437
H     -2.323130    0.118777   -0.729859
H      6.662270   -1.137942   -1.432960
H      8.007315   -0.487567   -0.361424
H      4.743645   -1.726556   -1.200302
H      1.569261    0.736482    1.629987
H     -0.141399   -0.583347    2.155459
H     -0.484308    0.570032    0.794353
H      6.361603    0.592123    1.192414
H      5.770191    1.150744   -1.833266
H      0.189448   -2.029575   -0.314464
H      8.308844    3.915953   -1.602359
