30

C      5.279763   -0.144996   -0.348016
C      4.402266   -1.073763   -1.155111
C     -2.475514    1.064075   -0.785665
C     -2.009281   -0.489261    0.909017
C     -3.817698    0.759150   -0.681643
C     -3.351824   -0.794832    1.013653
C      0.667763    0.964839    1.241309
C     -1.535070    0.444349    0.010774
C     -4.291897   -0.174441    0.216585
C     -0.091159    0.772295   -0.101034
C      0.942277   -0.185616    0.281744
C      2.294739   -0.064891   -0.361537
N     -5.686142   -0.483125    0.316230
O      2.736150    1.043990   -0.758087
O      3.113138   -1.172315   -0.544832
H      5.724823    0.611638   -1.021344
H      6.051735   -0.689256    0.241317
H      4.639826    0.370167    0.424897
H      4.856256   -2.097257   -1.051766
H      4.348859   -0.797114   -2.210945
H     -2.125986    1.803795   -1.501544
H     -1.249865   -0.973023    1.534752
H     -4.570705    1.246685   -1.310299
H     -3.695308   -1.535674    1.731661
H      1.359301    1.800586    1.309390
H      0.104313    0.664453    2.163066
H      0.157004    1.532341   -0.854293
H      0.668384   -1.196483    0.584132
H     -6.346475    0.103600    0.875944
H     -6.099672   -1.309917   -0.168354
