58

C      8.941210   -0.048258    1.018875
C      7.927723   -1.112561    2.980515
C     -8.788602   -0.310327    3.255197
C     -9.505619   -0.539165    2.097709
C     -7.435340   -0.095833    3.177712
C     -5.205632   -0.379576   -3.575395
C     -3.914867   -0.125652   -3.150452
C     -8.903461   -0.558469    0.869290
C     -6.821308   -0.115878    1.921321
C     -6.211559   -0.457396   -2.664949
C      1.849658    0.813739   -0.467402
C      2.477814   -0.523484   -2.305477
C      0.523567    0.623039   -0.793610
C      1.138011   -0.715404   -2.634011
C     -4.664798   -0.032300   -0.905721
C      4.553949    1.868567   -0.366496
C     -2.240530    0.320942   -1.340606
C      7.862344   -0.996271    1.490472
C     -3.625857    0.050748   -1.817609
C      2.852273    0.241443   -1.220833
C      0.137296   -0.140762   -1.877221
C     -7.500878   -0.340248    0.746405
C     -5.967502   -0.282773   -1.275381
C      4.271966    0.465153   -0.844283
C      4.570491    0.667624    0.587542
C      5.919508    0.411948    1.145991
N     -1.235604   -0.301893   -2.164276
N      6.567380   -0.666474    0.991800
O      6.498337    1.434062    1.885907
O     -6.969316   -0.367719   -0.446475
H      9.475966   -0.442673    0.109981
H      8.598055    0.970263    0.837668
H      9.720019   -0.012258    1.807518
H      6.903769   -1.002456    3.416441
H      8.316310   -2.112784    3.252842
H      8.652544   -0.390461    3.433259
H     -9.317280   -0.306381    4.198397
H    -10.584481   -0.708349    2.178390
H     -6.853868    0.084957    4.066579
H     -5.427097   -0.518908   -4.638540
H     -3.126704   -0.063396   -3.884164
H     -9.458066   -0.736616   -0.037960
H     -5.769201    0.053975    1.893683
H     -7.245713   -0.655864   -2.953901
H      2.066973    1.434900    0.409466
H      3.230550   -0.992804   -2.926467
H     -0.240085    1.101255   -0.160688
H      0.839881   -1.315047   -3.484495
H     -4.362426    0.118968    0.142495
H      3.709010    2.569656   -0.218257
H      5.500109    2.284087   -0.715794
H     -2.108499   -0.031445   -0.282770
H     -2.081694    1.430864   -1.296658
H      8.145661   -1.997227    1.049130
H      4.988952   -0.042675   -1.520711
H      3.752202    0.547561    1.302022
H     -1.525205   -0.878570   -2.977297
H      7.099663    1.270467    2.681288
