48

C     -7.541475   -0.126828   -1.523325
C     -6.758735   -0.598810   -0.493094
C     -6.989789    0.805005   -2.375532
C     -2.336235    0.723019    2.455436
C     -1.558509   -0.424576    2.250945
C     -5.465459   -0.138359   -0.338595
C     -5.684496    1.263698   -2.212101
C     -2.989183    1.234616    1.351054
C     -2.114302   -0.462721   -0.031566
C      5.989000    1.029325   -1.237140
C      3.458165   -0.464880   -1.242980
C      1.844757   -0.609844    0.940826
C     -0.599757   -2.252021    0.854690
C     -1.428201   -1.035856    1.029711
C     -4.899228    0.798035   -1.187922
C     -2.896333    0.659627    0.088745
C      5.014397    1.088911   -0.135620
C      3.794574    0.252701   -0.125869
C      6.370588    0.478956    0.085846
C      2.989347    0.190274    0.986019
C      2.309077   -1.264484   -1.280972
C      1.485765   -1.334774   -0.157859
C      7.230542    1.237912    1.023591
F      3.239323    0.859382    2.129427
F      1.960342   -1.977911   -2.375115
N      0.343898   -2.163821   -0.210117
O      7.225618    2.489905    0.944253
O      8.036626    0.647276    1.979686
O     -3.587322    1.231080   -0.987870
H     -8.569756   -0.481020   -1.659487
H     -7.169413   -1.339426    0.200614
H     -7.616595    1.173111   -3.188962
H     -2.406290    1.165351    3.433963
H     -1.052879   -0.809199    3.141496
H     -4.859868   -0.527038    0.487366
H     -5.260196    1.997027   -2.888399
H     -3.587398    2.116072    1.508737
H     -2.018024   -0.935243   -0.993248
H      5.880150    0.299644   -2.060617
H      6.542741    1.962256   -1.545646
H      4.024701   -0.480522   -2.167901
H      1.230580   -0.649909    1.830415
H     -1.300743   -3.114611    0.736169
H     -0.033553   -2.384636    1.828128
H      4.848101    2.139729    0.258523
H      6.425154   -0.624994    0.181684
H      0.158345   -2.753621   -1.070784
H      8.321949    1.112193    2.833279
