60

C     -5.599278    2.362205   -0.219521
C      7.172441    0.753792    1.577441
C      6.070490   -0.050301    1.755424
C      7.280162    1.582076    0.473662
C     -2.568940   -3.061816   -0.462245
C     -3.506829   -2.512034    0.562275
C      5.053131   -0.024467    0.806564
C      6.241150    1.577398   -0.450243
C     -1.139115   -3.103465   -0.041286
C     -2.866431   -1.537514    1.503105
C     -1.117045    0.075872    1.969208
C      0.318338    0.423778    1.818575
C      0.010053   -0.718101   -1.470693
C     -1.601374    0.878290   -2.461015
C     -3.188842    0.761590   -0.226323
C      4.040293    0.812278   -1.307401
C      5.128677    0.787781   -0.302708
C     -1.248481    0.070033   -1.369282
C     -0.636634   -1.876641    0.626926
C     -2.029292    0.001417   -0.248505
C      0.484448   -1.205656   -0.143653
C     -2.748350    1.636141   -2.450090
C     -3.536193    1.554306   -1.295444
C      2.157008    0.554393    0.202422
C     -1.668711   -0.834834    0.893938
N      0.963907   -0.087218    0.633464
N     -3.133937    2.461148   -3.533500
O      2.644901    1.550023    0.833277
O     -2.181593    3.045270   -4.308425
O     -4.327559    2.649169   -3.774072
O     -4.688387    2.320423   -1.294202
O      2.875124    0.156198   -0.920195
H     -4.981286    2.389504    0.716493
H     -6.194350    3.293919   -0.314885
H     -6.241578    1.458073   -0.196886
H      7.979345    0.754939    2.298682
H      5.998736   -0.688189    2.615915
H      8.162952    2.213837    0.348696
H     -2.890758   -4.126698   -0.657539
H     -2.685419   -2.555417   -1.455443
H     -4.311206   -1.950519    0.013678
H     -4.047762   -3.289920    1.143024
H      4.217084   -0.680549    1.003250
H      6.329755    2.223658   -1.307634
H     -0.523209   -3.259648   -0.974579
H     -0.980354   -4.038509    0.559751
H     -3.594014   -0.832807    1.954349
H     -2.461909   -2.140230    2.363951
H     -1.710658    1.034305    1.901330
H     -1.354879   -0.317386    2.992923
H      0.861560   -0.060920    2.683293
H      0.493691    1.516222    1.926186
H     -0.114953   -1.598331   -2.138660
H      0.803377   -0.081437   -1.932609
H     -0.958981    0.918685   -3.352600
H     -3.815117    0.717398    0.650663
H      3.863713    1.877377   -1.604042
H      4.385746    0.323176   -2.265387
H     -0.198637   -2.182890    1.615689
H      1.315978   -1.919178   -0.324693
