75

C     -5.467308    2.636455   -1.357650
C     -6.769230    4.282475   -0.030562
C     -6.640314    1.976061    0.733664
C     -4.451377   -2.139360   -1.040511
C      7.135293    3.826718   -0.913053
C      6.499697    3.540282   -2.106544
C      7.409672    2.774649   -0.066192
C      0.630291   -3.766215    2.902887
C     -0.504251   -4.094721    1.959271
C      6.147837    2.262627   -2.451437
C      7.046317    1.476494   -0.428427
C      1.017744   -2.322621    2.669873
C     -0.149801   -3.871912    0.524903
C      1.083785   -2.585542   -1.112488
C      1.897322   -1.383941   -1.451163
C     -1.153154    0.913588    0.597506
C      1.125703    0.254800    1.082505
C     -1.869432   -1.635049   -0.195738
C      6.062350   -0.177112   -1.941597
C      6.413599    1.211090   -1.621847
C     -0.237629   -0.127034    0.613999
C      1.513341   -2.207645    1.254485
C     -0.570592   -1.422180    0.219840
C     -2.445140    0.685621    0.180607
C      2.105091   -0.861001    0.961147
C     -2.785537   -0.605410   -0.214943
C     -3.722177    2.485257    1.086783
C      4.068148   -0.526551   -0.507382
C     -5.867913    3.053106    0.020613
C      0.419807   -2.509344    0.247286
N     -3.421956    1.688248    0.138517
N      2.715314   -0.919308   -0.350925
O     -3.071071    2.428102    2.316769
O      4.702371   -0.135652    0.502983
O     -4.085167   -0.839366   -0.635452
O      4.744741   -0.542218   -1.697077
O     -4.737388    3.417693    0.827393
H     -5.336304    1.522188   -1.406571
H     -6.340232    2.843347   -2.035079
H     -4.533613    3.084312   -1.714789
H     -7.765357    3.924098   -0.413445
H     -6.387686    5.021221   -0.734995
H     -6.887286    4.671790    1.008190
H     -5.988969    1.254321    1.259981
H     -7.264501    2.469201    1.505709
H     -7.223607    1.409341   -0.005826
H     -4.235840   -2.913453   -0.291979
H     -3.868493   -2.410030   -1.959902
H     -5.553513   -2.170682   -1.252963
H      7.397625    4.862666   -0.679363
H      6.293478    4.378325   -2.756655
H      7.906451    3.001181    0.866077
H      1.495410   -4.428827    2.789819
H      0.222667   -3.818243    3.934563
H     -1.398106   -3.565639    2.300076
H     -0.698915   -5.195762    2.079537
H      5.652344    2.066395   -3.389298
H      7.296956    0.705908    0.286186
H      0.138271   -1.671156    2.774971
H      1.851531   -2.007129    3.331920
H      0.620197   -4.657732    0.263799
H     -1.017542   -4.127266   -0.097413
H      1.671069   -3.526113   -1.214178
H      0.240810   -2.654041   -1.860685
H      1.213373   -0.545121   -1.738957
H      2.522476   -1.626265   -2.328245
H     -0.855437    1.925864    0.916263
H      1.491365    1.090779    0.422607
H      1.098184    0.660951    2.113485
H     -2.228751   -2.616846   -0.527695
H      6.812602   -0.840756   -1.466912
H      6.234530   -0.302854   -3.050768
H      2.307535   -2.964504    1.098328
H      2.883661   -0.692074    1.757991
H     -2.555364    1.601519    2.579470
