91

C     -0.123056    2.612906   -0.376660
C     -7.539048    4.540995    0.831313
C     -3.973142   -4.962414   -1.426185
C      8.377054    3.624697    0.734903
C     -4.219195   -5.235308   -0.091606
C     -3.673321   -3.665854   -1.777503
C      7.871987    3.284797    1.972350
C      8.484185    2.646799   -0.209593
C     -4.363915    1.896515   -2.675859
C     -5.339126    2.862528   -2.555138
C      1.021977   -3.166615   -2.779820
C      0.081466   -3.623312   -1.685641
C     -4.162826   -4.232165    0.846793
C     -3.615918   -2.660794   -0.843252
C      7.494188    1.965264    2.206004
C      8.115032    1.328786    0.000455
C      1.403504   -1.722208   -2.432438
C     -3.500169    1.560123   -1.679079
C     -5.423837    3.511626   -1.343173
C      0.692954   -3.527524   -0.325789
C      2.008215   -2.279125    1.280182
C      2.953930   -1.158948    1.552350
C      1.850064    0.644899   -0.673541
C     -1.057064   -1.401770    0.591044
C     -3.829434   -1.911701    1.557729
C      7.214336   -0.386678    1.506671
C     -0.461853    1.186504   -0.029509
C     -3.859534   -2.924483    0.486689
C      7.612348    0.996737    1.235949
C      0.512017    0.187256   -0.173824
C      2.175788   -1.763148   -1.153650
C      0.222281   -1.113254    0.134797
C     -3.621349    2.248374   -0.456151
C     -4.571241    3.223030   -0.266871
C      2.848920   -0.446874   -0.825321
C     -2.021221   -0.424151    0.735919
C     -1.723205    0.894320    0.421391
C      5.015113   -0.423214    0.366199
C      1.251463   -2.159454   -0.022446
N     -2.733831    1.904703    0.573083
N     -4.708456    3.923584    0.950884
N      3.621412   -0.674929    0.372292
O      5.579872    0.009999   -0.692249
O     -5.642484    6.205975   -0.001188
O     -5.807186    5.888812    2.385091
O     -3.279921   -0.692390    1.183201
O      5.825743   -0.622472    1.463611
S     -5.904705    5.159794    1.070575
H     -0.815999    3.256216    0.174064
H      0.900615    2.882235   -0.087987
H     -0.251839    2.679570   -1.487652
H     -8.057645    5.100176    0.056029
H     -8.098695    4.650666    1.783668
H     -7.539201    3.431285    0.629265
H     -4.014207   -5.750649   -2.184899
H      8.690942    4.626683    0.478757
H     -4.451798   -6.263913    0.149698
H     -3.477943   -3.431247   -2.814899
H      7.787899    4.060988    2.719281
H      8.877047    2.899123   -1.179862
H     -4.273831    1.362937   -3.632022
H     -6.008063    3.099029   -3.378478
H      0.481761   -3.224607   -3.723842
H      1.967710   -3.749690   -2.755280
H     -0.165035   -4.685997   -1.884649
H     -0.846915   -3.042004   -1.797755
H     -4.359917   -4.484286    1.871303
H     -3.380984   -1.638858   -1.118488
H      7.101398    1.750860    3.201373
H      8.239669    0.621302   -0.809378
H      0.495136   -1.104581   -2.296649
H      2.035478   -1.271351   -3.226678
H     -2.723532    0.787646   -1.782250
H     -6.176686    4.281963   -1.196943
H      0.016201   -3.913427    0.427984
H      1.587254   -4.216824   -0.328192
H      2.572409   -3.246351    1.291695
H      1.264376   -2.307604    2.103291
H      2.485077   -0.326674    2.137024
H      3.743826   -1.566430    2.250423
H      2.287461    1.400561    0.015854
H      1.711208    1.157887   -1.640535
H     -1.279572   -2.413666    0.833071
H     -3.327920   -2.351997    2.456957
H     -4.898752   -1.765685    1.885804
H      7.578608   -0.691908    2.508840
H      7.668710   -1.109240    0.771705
H      2.977931   -2.545544   -1.191043
H      3.502756   -0.188265   -1.691410
H     -2.768991    2.367295    1.492124
H     -4.134760    3.744132    1.786613
