68

C     -8.990912    1.920714   -0.922396
C      8.297896    1.407928   -1.029022
C     -7.993704    2.241106   -1.810254
C     -8.669627    0.992354    0.051986
C      7.410684    0.465531   -0.583164
C      8.020846    2.749367   -0.915873
C     -0.011162   -3.845519    1.841341
C     -0.207384   -4.101167    0.376422
C     -6.754242    1.679233   -1.740935
C     -7.424891    0.417743    0.134264
C      6.217090    0.858420   -0.009689
C      6.822930    3.101502   -0.339772
C      0.489144   -2.434818    2.081755
C     -0.840197   -2.933873   -0.361045
C      0.495391   -1.163316   -1.488616
C      1.973893   -0.993073   -1.416811
C     -1.063572    1.425383    1.757332
C      1.072223    0.295143    1.728508
C     -2.225664   -0.325189    0.027062
C     -5.070188    0.141715   -0.697093
C      4.610114    2.617301    0.736746
C     -6.440857    0.751748   -0.763598
C      5.892350    2.190940    0.126629
C     -0.328228    0.349120    1.237892
C      1.049039   -1.942338    0.770428
C     -0.895936   -0.545583    0.363340
C     -2.381392    1.584998    1.380629
C      1.887670   -0.726127    1.033030
C     -2.980331    0.706507    0.506387
C      3.285545    0.819035   -0.272732
C     -0.105784   -1.648934   -0.160396
I     -3.518339    3.182014    2.135036
N      2.402952   -0.275196   -0.231842
O      3.704137    1.175948   -1.414764
O     -4.294529    0.907576    0.161625
O      3.730042    1.531338    0.825921
H     -9.984119    2.328509   -0.925990
H      9.248691    1.102152   -1.485904
H     -8.224395    2.968404   -2.584295
H     -9.413219    0.688716    0.793368
H      7.659691   -0.599052   -0.686863
H      8.738589    3.480817   -1.275973
H     -0.907407   -4.067721    2.446444
H      0.786588   -4.537776    2.189761
H      0.714830   -4.461128   -0.130546
H     -0.939166   -4.955413    0.293540
H     -5.970550    1.943727   -2.454874
H     -7.223917   -0.295565    0.905508
H      5.539581    0.091559    0.334494
H      6.568990    4.161759   -0.233370
H      1.290912   -2.419849    2.866235
H     -0.369350   -1.809379    2.363681
H     -1.898562   -2.909479   -0.067653
H     -0.812623   -3.198048   -1.439519
H      0.040449   -0.232269   -1.831318
H      0.289919   -1.955527   -2.263058
H      2.289848   -0.384139   -2.285373
H      2.540254   -1.955834   -1.468045
H     -0.620693    2.136323    2.449325
H      1.054519    0.140605    2.830068
H      1.542609    1.306067    1.543175
H     -2.673213   -1.017062   -0.652216
H     -5.206018   -0.864061   -0.247265
H     -4.649109   -0.009935   -1.702885
H      4.154440    3.421596    0.090086
H      4.834139    3.065862    1.711803
H      1.723177   -2.701009    0.302710
H      2.710109   -1.040382    1.708265
