59

C     -3.086439    4.697496   -0.496373
C      6.115454    2.084391   -1.616862
C      5.251588    2.777219   -0.798017
C      6.382206    0.770055   -1.319189
C     -3.040468   -2.545083    2.220373
C     -3.610971   -2.902213    0.881782
C      4.662356    2.171573    0.299830
C      5.783992    0.165662   -0.209754
C     -2.084676   -1.401953    2.198757
C     -2.654501   -2.811508   -0.253728
C     -0.583155   -1.892185   -1.203428
C      0.726654   -2.308123   -0.594276
C     -0.149282    0.590611    0.666949
C     -1.970697    2.018236   -0.114715
C     -3.458529   -0.100133   -0.930072
C      4.284096    0.238088    1.784769
C      4.919554    0.852811    0.612499
C     -1.478306    0.729158    0.047964
C     -1.014334   -1.714076    1.186868
C     -2.236301   -0.353234   -0.367603
C      0.139203   -0.755670    1.232084
C     -3.966503    1.173029   -1.100956
C     -3.206565    2.243691   -0.685107
C      2.557986   -1.042048    0.580312
C     -1.675680   -1.692048   -0.175317
N      1.191488   -1.364080    0.404289
O     -5.220104    1.308339   -1.684560
O      3.396874   -1.587343   -0.147362
O     -3.735397    3.509404   -0.866226
O      2.951126   -0.146045    1.534587
H     -3.148070    4.870161    0.604629
H     -2.065720    4.789654   -0.894594
H     -3.673253    5.543345   -0.956119
H      6.566552    2.589826   -2.478312
H      5.039220    3.811164   -1.028701
H      7.061332    0.225286   -1.962863
H     -3.873205   -2.289762    2.914271
H     -2.546043   -3.440190    2.662506
H     -4.528088   -2.278245    0.738718
H     -3.973968   -3.950408    0.945333
H      3.977031    2.714773    0.952665
H      6.031954   -0.865265   -0.023919
H     -1.587590   -1.353358    3.191166
H     -2.622202   -0.466153    1.968506
H     -2.050097   -3.765430   -0.302721
H     -3.227993   -2.797451   -1.202821
H     -0.867618   -2.671179   -1.936781
H     -0.393494   -0.966166   -1.793056
H      0.642398   -3.344710   -0.156607
H      1.473126   -2.341933   -1.399084
H      0.601330    0.897773   -0.119297
H      0.009663    1.342756    1.494760
H     -1.383987    2.875956    0.208020
H     -4.051845   -0.937168   -1.254684
H      4.836227   -0.661625    2.140769
H      4.259751    0.934870    2.664098
H     -0.631700   -2.729569    1.369915
H      0.497598   -0.723934    2.289709
H     -5.561979    2.272962   -1.793761
