68

C      8.516825    0.455383    3.463374
C     -7.682502    0.665496    2.606752
C      8.326646   -0.467146    2.456604
C      7.495537    1.342093    3.738938
C     -7.563600    1.630831    1.635912
C     -7.215570   -0.610347    2.391426
C      0.559643   -1.258989   -4.218307
C      1.112834    0.140875   -4.010552
C      7.162018   -0.531321    1.724946
C      6.334097    1.281556    3.012572
C     -6.967909    1.295641    0.443363
C     -6.622406   -0.922061    1.188660
C     -0.137079   -1.749226   -2.941993
C      1.615700    0.340465   -2.591302
C     -0.043916    1.628496   -1.228885
C     -1.379254    1.643071   -0.589915
C      0.568258   -1.780786    1.573087
C     -1.224684   -1.501924   -0.035541
C      2.231930   -0.140815    0.177565
C      4.894605    0.315336    1.245695
C     -5.866188   -0.296094   -1.059762
C      6.157649    0.359453    2.014276
C     -6.496944    0.031754    0.210201
C      0.139949   -1.183193    0.380155
C     -0.608188   -0.497715   -2.248387
C      0.966058   -0.358631   -0.328374
C      1.831151   -1.552057    2.060549
C     -1.698515   -0.745566   -1.243675
C      2.671245   -0.719034    1.348540
C     -3.625938    0.740700   -0.806754
C      0.488625    0.258053   -1.578803
I      2.485369   -2.456777    3.870056
N     -2.234731    0.533051   -0.884376
O     -4.155533    1.835544   -0.496222
O      3.930588   -0.511186    1.866220
O     -4.477188   -0.301952   -1.082653
H      9.410935    0.529915    4.049578
H     -8.160045    0.967433    3.539407
H      9.160853   -1.150273    2.270688
H      7.608463    2.092159    4.532930
H     -7.915463    2.646661    1.759567
H     -7.326285   -1.354150    3.185185
H     -0.250408   -1.157874   -4.976782
H      1.299196   -1.967398   -4.589122
H      0.388551    0.919454   -4.268963
H      1.998476    0.294606   -4.670634
H      7.055696   -1.283275    0.931806
H      5.542263    2.009244    3.266456
H     -6.876284    2.050633   -0.320334
H     -6.266983   -1.943554    1.060164
H     -0.979304   -2.409832   -3.159929
H      0.658160   -2.204385   -2.319855
H      2.173334    1.278048   -2.550160
H      2.293486   -0.512401   -2.368508
H      0.688745    2.212806   -0.613169
H     -0.115638    2.189144   -2.195786
H     -1.907298    2.602814   -0.785762
H     -1.207243    1.610480    0.524820
H     -0.081829   -2.431182    2.132943
H     -1.913130   -1.235087    0.802301
H     -1.347726   -2.602586   -0.180757
H      2.883234    0.512071   -0.385319
H      5.139127   -0.030325    0.204829
H      4.460153    1.335379    1.135962
H     -6.194886   -1.330600   -1.377586
H     -6.208012    0.353918   -1.907106
H     -1.046348    0.155496   -3.036952
H     -2.452375   -1.405525   -1.753305
