91

C     -0.791444    2.071330    1.804872
C     -6.074725    5.950047    1.602691
C     -3.695200   -5.878947    0.387009
C      9.332093    1.287314   -0.218060
C     -3.205833   -5.635736   -0.875459
C     -4.296783   -4.843057    1.061736
C      8.523083    2.178015    0.416565
C      8.936201    0.725857   -1.406079
C     -3.004102    3.644593   -2.124205
C     -4.054730    4.514209   -1.925595
C      1.764567   -3.921749    2.138235
C      0.479092   -4.061482    1.315222
C     -3.317653   -4.383344   -1.445654
C     -4.398067   -3.604073    0.474635
C      7.284523    2.520102   -0.146375
C      7.710019    1.073094   -1.951089
C      2.024049   -2.432714    2.226582
C     -2.759904    2.622167   -1.230016
C     -4.855295    4.346609   -0.822583
C      0.803391   -3.585555   -0.074659
C      1.770528   -1.885304   -1.511875
C      2.494626   -0.590469   -1.647027
C      1.507653    0.353169    1.397942
C     -1.196006   -1.494472   -0.386926
C     -4.029876   -1.993020   -1.420754
C      5.577169    2.316077   -1.927290
C     -0.905462    0.787659    1.022725
C     -3.918726   -3.327944   -0.786452
C      6.872844    1.967611   -1.334238
C      0.190976   -0.040000    0.826707
C      2.307429   -1.915535    0.848108
C      0.051783   -1.209596    0.107119
C     -3.555783    2.445972   -0.121918
C     -4.597781    3.300874    0.083518
C      2.646867   -0.454789    0.852293
C     -2.304521   -0.667787   -0.194872
C     -2.154411    0.499324    0.526511
C      4.101827    0.922016   -0.570214
C      1.187540   -2.132580   -0.132320
N     -3.270817    1.398429    0.762917
N     -5.458207    3.180516    1.199733
N      3.062889   -0.058596   -0.453988
O      4.626072    1.415968    0.458643
O     -7.512533    3.983411    2.638977
O     -7.680057    4.285509    0.227601
O     -3.550129   -0.936257   -0.679976
O      4.570644    1.365156   -1.783546
S     -6.739752    4.319610    1.413236
H     -1.469538    1.931394    2.697186
H      0.212991    2.212263    2.237461
H     -1.182162    2.921903    1.241957
H     -6.211098    6.312166    2.651273
H     -4.960524    5.913820    1.440482
H     -6.531006    6.696534    0.945324
H     -3.602141   -6.877575    0.831541
H     10.299325    1.036216    0.247140
H     -2.733241   -6.449340   -1.407825
H     -4.678178   -5.041664    2.052041
H      8.854228    2.608428    1.349032
H      9.609928    0.020403   -1.879657
H     -2.363309    3.768782   -2.995964
H     -4.254075    5.333949   -2.638714
H      2.601973   -4.337193    1.513449
H      1.679653   -4.411250    3.119756
H      0.233362   -5.131486    1.260107
H     -0.285772   -3.447978    1.823276
H     -2.905603   -4.269616   -2.448432
H     -4.874630   -2.790880    1.011824
H      6.670684    3.228743    0.376757
H      7.412180    0.617964   -2.898524
H      1.092802   -1.980891    2.637697
H      2.888533   -2.188407    2.860154
H     -1.910437    1.947473   -1.422678
H     -5.673372    5.029167   -0.674128
H      0.040454   -3.893694   -0.791051
H      1.736301   -4.147815   -0.376390
H      2.367605   -2.766443   -1.820646
H      0.884005   -1.850924   -2.206955
H      3.286644   -0.765234   -2.439445
H      1.835546    0.189105   -2.135155
H      1.524807    0.296882    2.494554
H      1.732492    1.421531    1.139947
H     -1.314545   -2.391960   -0.945555
H     -5.142690   -1.825805   -1.544417
H     -3.658764   -2.033824   -2.467574
H      5.679182    2.521784   -3.018426
H      5.166381    3.279766   -1.502274
H      3.192661   -2.469260    0.453357
H      3.486159   -0.345116    1.604274
H     -3.868191    1.264055    1.604706
H     -5.366690    2.442397    1.906433
