57

C      7.551674   -2.123906   -0.752592
C      6.373246   -1.961607   -1.452919
C      7.603870   -1.635580    0.536512
C     -3.538102    3.084389   -0.403666
C     -4.009262    1.895686   -1.216378
C      5.267614   -1.330165   -0.893506
C      6.500772   -1.008864    1.086377
C     -2.352028    2.804566    0.454793
C     -2.837487    1.385994   -2.008234
C     -0.681383    0.249421   -1.798646
C      0.660819    0.283621   -1.174783
C     -1.069191    0.581547    1.803082
C     -2.689896   -1.292879    1.935737
C     -3.357608   -1.041935   -0.675996
C      4.211405   -0.165241    1.067105
C      5.317789   -0.844089    0.388059
C     -2.086118   -0.307777    1.166719
C     -1.247725    2.026974   -0.220124
C     -2.409103   -0.161826   -0.158011
C     -0.357636    1.448949    0.828825
C     -3.625276   -2.165411    1.438912
C     -3.943798   -2.013435    0.109155
C      1.952431    0.602351    0.874012
C     -1.798935    0.868613   -1.036386
N      0.738499    0.777467    0.162324
N     -4.221896   -3.162887    2.261327
O     -4.898184   -2.891711   -0.429543
O      2.039790    1.028512    2.048113
O     -4.682911   -4.318355    1.711782
O     -4.336154   -3.005531    3.491539
O      3.060185   -0.041226    0.285289
H      8.426746   -2.601517   -1.139300
H      6.346826   -2.349675   -2.462524
H      8.514454   -1.743581    1.121874
H     -3.330060    3.935874   -1.095187
H     -4.381404    3.361190    0.263959
H     -4.441506    1.149069   -0.536972
H     -4.828702    2.266514   -1.868750
H      4.368265   -1.213452   -1.446415
H      6.604578   -0.647353    2.102613
H     -1.896454    3.808794    0.705933
H     -2.631667    2.382479    1.445874
H     -3.153652    0.584391   -2.671577
H     -2.430652    2.257227   -2.591137
H     -0.616529    0.811648   -2.778203
H     -0.980312   -0.788466   -2.130997
H      1.398653    0.883371   -1.787254
H      1.034252   -0.784194   -1.130327
H     -0.322915   -0.101209    2.296477
H     -1.548572    1.130861    2.617991
H     -2.406136   -1.375356    2.983003
H     -3.650603   -0.977878   -1.732359
H      4.553838    0.881185    1.310554
H      3.983279   -0.629363    2.063454
H     -0.652990    2.651104   -0.899015
H      0.047211    2.332418    1.410571
H     -5.141350   -2.789746   -1.407902
