71

C     -4.821576   -1.047276    1.840930
C      6.628952    3.150418   -0.147279
C      6.854783    2.138914   -1.052816
C      6.144603    2.799373    1.096790
C     -1.412248   -3.209462   -2.666843
C     -2.182013   -3.431252   -1.385455
C      6.604476    0.811676   -0.727254
C      5.890739    1.467585    1.430746
C     -0.418125   -2.074278   -2.536321
C     -1.282330   -3.492868   -0.185439
C      0.464632   -2.456842    1.151767
C      1.742509   -1.705826    1.176659
C     -3.685480    3.101342    1.621344
C     -3.720823    3.327874   -0.842037
C     -5.147733    3.383009    1.615243
C     -5.173470    3.704847   -0.674169
C      0.743281    0.225816   -1.175203
C     -1.300414    1.331401   -0.407701
C     -2.334763   -0.954262    0.596051
C      5.844314   -0.943552    0.877442
C      6.121213    0.464953    0.514538
C     -0.582680    0.157054   -0.507207
C      0.464283   -2.265566   -1.351752
C     -1.098588   -1.028095    0.003206
C      1.420801   -1.099366   -1.270497
C     -2.551321    1.367649    0.200540
C     -3.071274    0.199910    0.709158
C      3.630754   -1.016123   -0.218161
C     -0.343339   -2.310579   -0.091253
N     -3.302281    2.572749    0.309801
N      2.239181   -1.282934   -0.085818
O      4.138502   -0.637452   -1.310586
O     -4.329471    0.164640    1.336452
O     -5.770686    3.091559    0.413507
O      4.458551   -1.174333    0.879396
H     -4.114785   -1.428203    2.624706
H     -5.841852   -0.877160    2.245598
H     -4.832800   -1.843855    1.047305
H      6.837744    4.173051   -0.442255
H      7.234400    2.334940   -2.049734
H      5.971648    3.603261    1.798435
H     -2.149255   -2.915788   -3.462707
H     -0.911772   -4.143036   -3.004666
H     -2.648526   -4.451648   -1.482897
H     -3.025231   -2.725335   -1.277283
H      6.785380    0.023413   -1.436708
H      5.510125    1.241331    2.422169
H      0.195100   -2.102672   -3.481600
H     -0.977889   -1.140082   -2.565538
H     -0.629552   -4.393826   -0.318982
H     -1.873157   -3.665244    0.711232
H     -0.177921   -2.118217    2.016324
H      0.673763   -3.528130    1.352887
H      1.633304   -0.786895    1.824516
H      2.552820   -2.294626    1.687649
H     -3.051078    3.987507    1.843871
H     -3.431625    2.343126    2.382274
H     -3.492552    2.853362   -1.795956
H     -3.143918    4.298779   -0.829905
H     -5.642686    2.770594    2.396749
H     -5.308704    4.449992    1.918542
H     -5.344995    4.788103   -0.636970
H     -5.702383    3.327300   -1.582600
H      1.439075    0.918777   -0.619203
H      0.661593    0.657677   -2.212022
H     -0.933072    2.276188   -0.792933
H     -2.775493   -1.860388    1.009037
H      6.206010   -1.172236    1.913252
H      6.335033   -1.614636    0.143751
H      1.067943   -3.180971   -1.514551
H      2.042349   -1.135157   -2.194452
