70

C     -9.301267   -0.113529   -1.021014
C      8.833666    0.790749    0.018032
C     -8.527287   -1.113293   -0.471192
C     -8.651627    1.002689   -1.500567
C      7.559072    1.224641    0.251389
C      9.053941   -0.557179   -0.027742
C     -0.471100    2.585362    1.646818
C     -1.126214    2.911827    0.369021
C     -7.141734   -0.997552   -0.403930
C     -7.279615    1.111759   -1.431267
C      6.507847    0.345997    0.438508
C      8.002313   -1.440507    0.159366
C      0.200655    1.252077    1.721181
C     -0.609744    2.261407   -0.851166
C      0.729816    0.498401   -1.922170
C      2.236006    0.609866   -1.810243
C      1.084951   -1.467536    0.431857
C     -1.191655   -2.345008    0.608250
C     -2.278175   -0.077399   -0.443777
C     -5.004171    0.245299   -0.813303
C      5.653738   -2.028512    0.579014
C     -6.481023    0.113765   -0.880129
C      6.700764   -1.004167    0.397509
C     -0.365083   -1.305622    0.239346
C      1.007938    1.045480    0.488892
C     -0.925122   -0.149021   -0.297774
C      1.853028   -0.198899    0.492486
C     -2.576369   -2.267360    0.456943
C     -3.111643   -1.120820   -0.073674
C      3.992734   -0.737016   -0.603645
C      0.012572    0.922364   -0.670708
N      2.723957   -0.114327   -0.661019
N     -3.418951   -3.346391    0.841181
O      4.716035   -0.634049   -1.634321
O     -3.123420   -4.190461    1.883931
O     -4.475190   -3.555785    0.217591
O     -4.481227   -0.944338   -0.264872
O      4.386531   -1.408452    0.524671
H    -10.378840   -0.228654   -1.061215
H      9.635117    1.493302   -0.124465
H     -9.038123   -2.003703   -0.087988
H     -9.258701    1.785311   -1.931351
H      7.351485    2.283503    0.293773
H     10.041092   -0.963676   -0.208516
H      0.292482    3.360736    1.943432
H     -1.226932    2.616838    2.481027
H     -1.042297    4.030586    0.217405
H     -2.240797    2.753592    0.471197
H     -6.555071   -1.787325    0.029046
H     -6.754440    1.991161   -1.807601
H      5.516449    0.724981    0.623055
H      8.177710   -2.506575    0.123115
H      0.899071    1.291155    2.605851
H     -0.528135    0.470695    1.939191
H     -1.418778    2.197343   -1.610659
H      0.173472    2.916882   -1.336294
H      0.405098    1.064388   -2.821225
H      0.529850   -0.587328   -2.162651
H      2.558134    1.671901   -1.809293
H      2.660391    0.147935   -2.723933
H      1.281528   -2.056671    1.371290
H      1.453111   -2.140871   -0.394214
H     -0.794250   -3.257604    1.028227
H     -2.707459    0.811399   -0.856523
H     -4.804939    1.118626   -0.137154
H     -4.549150    0.517189   -1.784738
H      5.684971   -2.807461   -0.217678
H      5.783400   -2.466799    1.586031
H      1.648797    1.908247    0.308796
H      2.490806   -0.153561    1.417761
