70

C      8.993951   -1.579050    0.017106
C     -7.877031   -2.486184    1.444077
C      8.623714   -0.419065    0.653479
C      8.098996   -2.294126   -0.735366
C     -7.250515   -3.121361    0.396292
C     -7.943305   -1.103958    1.468051
C      0.410278    3.916077    0.087108
C      1.546373    3.136682   -0.581128
C      7.322631    0.010099    0.515652
C      6.787557   -1.870592   -0.880197
C     -6.694868   -2.373905   -0.619325
C     -7.370979   -0.375951    0.424500
C     -0.385310    2.853582    0.852097
C      0.926023    2.226802   -1.586857
C     -0.563993    0.359386   -2.043102
C     -1.964305   -0.101160   -1.860192
C     -1.291521   -0.145323    1.241366
C      0.895193   -1.106663    1.947520
C      2.152783    0.120764   -0.127975
C      4.997346   -0.273576   -0.414515
C     -6.158681   -0.181364   -1.708600
C      6.425262   -0.703338   -0.236534
C     -6.743925   -0.993151   -0.625019
C      0.162084   -0.311667    1.056960
C     -0.990593    1.941906   -0.143985
C      0.774424    0.319000    0.000888
C     -1.930288    0.924031    0.440966
C      2.247111   -1.289075    1.804774
C      2.870966   -0.661502    0.749088
C     -4.061925    0.372908   -0.630149
C      0.021430    1.166406   -0.950192
N     -2.647720    0.383687   -0.717332
N      2.994631   -2.109320    2.726408
O     -4.701063    0.790277    0.357174
O      2.409216   -3.193317    3.330489
O      4.183493   -1.863706    3.001563
O      4.238316   -0.850971    0.611284
O     -4.768195   -0.129813   -1.703016
H     10.006061   -1.976193    0.083144
H     -8.334310   -3.019497    2.274695
H      9.356458    0.130633    1.246279
H      8.355701   -3.217392   -1.253965
H     -7.209522   -4.196303    0.395830
H     -8.417605   -0.540049    2.255774
H     -0.250690    4.326947   -0.688668
H      0.819631    4.670070    0.778787
H      2.058436    2.611398    0.222772
H      2.244749    3.796871   -1.097470
H      7.006540    0.922294    1.008220
H      6.071843   -2.423820   -1.469824
H     -6.194943   -2.847550   -1.457504
H     -7.426905    0.713234    0.442023
H     -1.184670    3.366266    1.405301
H      0.265026    2.352899    1.593936
H      0.212633    2.831058   -2.224877
H      1.655364    1.815101   -2.282039
H      0.083924   -0.564233   -2.150289
H     -0.426698    0.867083   -3.045588
H     -2.543498    0.165342   -2.795212
H     -2.040566   -1.230364   -1.833250
H     -1.543165   -0.073086    2.340155
H     -1.763413   -1.124148    0.932864
H      0.375638   -1.581880    2.760676
H      2.635615    0.621111   -0.968613
H      4.626205   -0.502697   -1.430604
H      4.999504    0.825472   -0.302870
H     -6.536673    0.862241   -1.705010
H     -6.454850   -0.603185   -2.714869
H     -1.572696    2.552265   -0.868004
H     -2.610685    1.486642    1.113618
