70

C      0.549292    5.812368   -1.464190
C      6.868028   -2.881632    0.804174
C      5.911017   -1.789870    2.858770
C     -2.203218    3.078571    0.470283
C     -0.778188   -1.588776    0.803770
C     -5.776409   -1.275003   -1.221761
C     -4.056334   -2.418556    0.065873
C     -6.015041   -1.438279    1.237812
C      0.410803    4.440700   -0.844191
C     -0.369947    3.524214   -1.731813
C      3.824062   -2.410623    0.703941
C      4.668303   -0.427131   -0.218377
C      2.654274   -2.240612   -0.010327
C      3.498078   -0.262036   -0.929488
C     -4.337608    0.057883    0.280539
C      1.502412   -0.228578   -2.939736
C      6.129812   -1.686132    1.387324
C     -1.332724    1.980445   -0.051388
C     -0.639442   -0.271039    0.103853
C      4.857163   -1.506738    0.615236
C      2.454108   -1.162950   -0.848369
C     -0.475738    2.203519   -1.081936
C      1.192249   -0.965814   -1.624956
C     -3.570750    0.186559    1.539797
C      0.235416   -0.093618   -0.927712
C     -1.451632    0.760212    0.574521
C      0.320079    1.143086   -1.523706
C     -5.022620   -1.261770    0.105885
N     -2.333893    0.488343    1.642141
O     -4.288390   -0.047897    2.725182
O      1.264442    1.106768   -2.545119
H      1.011097    6.469287   -0.721087
H      1.249215    5.714648   -2.320529
H     -0.423929    6.140263   -1.834501
H      6.337666   -3.824301    0.918132
H      6.997007   -2.639951   -0.287507
H      7.881928   -2.867851    1.237085
H      6.473177   -0.995557    3.432515
H      6.366687   -2.751746    3.202295
H      4.862364   -1.672476    3.146386
H     -2.241307    3.940989   -0.194085
H     -1.699100    3.418386    1.420570
H     -3.195651    2.670485    0.651219
H     -1.652654   -1.612230    1.458741
H     -0.852470   -2.405128    0.076140
H      0.182000   -1.698614    1.385217
H     -6.789607   -1.670467   -1.038625
H     -5.284051   -1.947877   -1.960625
H     -5.811319   -0.235879   -1.639669
H     -3.218300   -2.224201   -0.616075
H     -4.550482   -3.346617   -0.336817
H     -3.765053   -2.675358    1.097447
H     -5.516609   -1.927442    2.085039
H     -6.926189   -1.977950    0.905749
H     -6.323437   -0.417729    1.575446
H      0.064824    4.477328    0.198075
H      1.457650    4.017834   -0.795330
H      0.205182    3.403083   -2.672382
H     -1.354676    3.931073   -2.029255
H      3.959710   -3.264551    1.356308
H      5.480318    0.294378   -0.295663
H      1.832978   -2.955007    0.057285
H      3.338329    0.589998   -1.593269
H     -5.094313    0.880397    0.288662
H     -3.710563    0.255174   -0.613998
H      2.512065   -0.430897   -3.284651
H      0.786502   -0.494193   -3.720429
H      6.816632   -0.818812    1.203295
H      0.755521   -1.935320   -1.942229
H     -3.848744   -0.238782    3.599275
