61

C     -6.188731   -0.895646   -2.211741
C     -7.521760   -0.716390   -0.157433
C      2.949114    2.349196   -1.149878
C      0.142054   -1.234484    0.778580
C      5.729984   -0.167673   -1.097044
C      6.406099   -2.583255   -1.295544
C      5.862764   -1.580765    0.880877
C     -4.560951   -0.714234    0.312919
C     -4.806987    1.580587   -0.155087
C     -3.412286   -0.448463    1.015837
C     -3.638526    1.842368    0.561507
C      0.910953    2.899615    0.190435
C      4.085167   -1.984052   -0.833685
C     -1.778659    2.460669    2.566523
C     -6.506874   -0.013668   -1.033978
C      1.748589    1.945315   -0.347474
C      0.383921    0.232307    0.590198
C     -5.265850    0.296359   -0.276855
C     -2.906870    0.838737    1.167314
C     -1.659342    1.080043    1.932881
C     -0.195428    2.519326    0.931480
C      3.215429   -1.040585   -0.100889
C     -0.450424    1.179127    1.125910
C      1.489502    0.604743   -0.150366
C      5.537414   -1.578280   -0.586890
N      2.380830   -0.335119   -0.724748
O      3.335958   -0.949678    1.270884
O     -1.188184    3.278293    1.574849
H     -5.140390   -0.761481   -2.534843
H     -6.421937   -1.944730   -1.926796
H     -6.858239   -0.645369   -3.064189
H     -7.598105   -1.789117   -0.380973
H     -8.543392   -0.283941   -0.291235
H     -7.276139   -0.592288    0.925967
H      3.082371    1.636032   -1.985504
H      2.751364    3.338436   -1.621577
H      3.874625    2.325816   -0.558075
H      0.920515   -1.835232    0.273281
H     -0.824756   -1.541756    0.298331
H      0.090707   -1.526491    1.835691
H      5.621198    0.592041   -0.275712
H      5.009584    0.108207   -1.868180
H      6.766126   -0.056541   -1.461576
H      5.918683   -3.582077   -1.275286
H      6.519753   -2.255330   -2.357859
H      7.384854   -2.644156   -0.768052
H      5.355076   -2.394160    1.429180
H      6.973738   -1.717716    0.959144
H      5.645216   -0.589984    1.370989
H     -4.953679   -1.736177    0.198399
H     -5.340356    2.424388   -0.611917
H     -2.885813   -1.272692    1.468525
H     -3.288820    2.855577    0.649592
H      1.098792    3.971758    0.046499
H      3.927646   -1.889775   -1.937576
H      3.935583   -3.040250   -0.538534
H     -1.184557    2.425133    3.502253
H     -2.839616    2.735232    2.752703
H     -6.935699    0.941769   -1.415779
H     -1.611548    0.286536    2.715878
H      2.730308   -0.406054    1.847821
