67

C      0.905532   -2.178703   -4.041217
C     -6.490789   -1.219948    2.222473
C     -7.573194    0.905894    1.699410
C      2.220540   -2.047964   -1.093610
C      0.472737    2.232405    0.620582
C      6.522651   -0.054987    0.031403
C      5.272968   -1.724831    1.294683
C      6.626316   -0.083980    2.494481
C     -0.022882   -2.257441   -2.855265
C     -4.152397    1.392343    1.691028
C     -5.181151    0.281593   -0.096102
C     -3.113814    1.769714    0.844328
C     -4.135558    0.663549   -0.942914
C      4.564330    0.665588    1.437413
C     -2.284092    1.437436   -2.830027
C     -6.274657    0.264180    2.165827
C      1.186192   -1.015966   -1.116866
C      0.307982    1.055481   -0.298342
C     -5.194700    0.640979    1.213882
C     -3.081197    1.414342   -0.489790
C      0.093097   -1.088905   -1.956340
C     -1.978377    1.824679   -1.389363
C      3.578907    0.545296    0.330729
C     -0.782578    0.978216   -1.137089
C      1.301487    0.069932   -0.272760
C     -0.894776   -0.105355   -1.978650
C      5.722593   -0.264779    1.289074
N      2.380107    0.232243    0.632187
O      3.972747    0.769752   -0.970608
O     -2.070047    0.015708   -2.743636
H      1.696005   -2.981023   -4.004549
H      0.368387   -2.350893   -5.008562
H      1.370123   -1.175019   -4.132282
H     -7.240169   -1.565253    1.487510
H     -6.924686   -1.452936    3.235292
H     -5.534695   -1.775039    2.184652
H     -7.442968    2.005337    1.581030
H     -7.881499    0.520559    0.708515
H     -8.371556    0.727963    2.449969
H      2.625599   -2.093009   -0.050340
H      1.863302   -3.072303   -1.313552
H      3.080138   -1.744956   -1.751529
H      1.545473    2.556482    0.445905
H      0.414538    1.921487    1.661726
H     -0.233129    3.030803    0.392243
H      6.372257   -0.852947   -0.724327
H      7.629729   -0.057319    0.258070
H      6.349280    0.961258   -0.414904
H      6.121055   -2.391891    1.596964
H      4.445480   -1.861858    1.996773
H      5.004599   -2.035634    0.261035
H      6.626472    0.973096    2.847857
H      6.382799   -0.808452    3.300954
H      7.653311   -0.323615    2.166525
H     -1.063690   -2.290889   -3.263992
H      0.091307   -3.232992   -2.307931
H     -4.129894    1.696073    2.727145
H     -6.006819   -0.312882   -0.477864
H     -2.331207    2.360608    1.295411
H     -4.186189    0.353236   -1.965090
H      4.100900    0.489078    2.414497
H      4.950309    1.705853    1.421678
H     -3.274738    1.709087   -3.173303
H     -1.454228    1.895153   -3.443136
H     -6.041691    0.618242    3.183964
H     -1.744908    2.906103   -1.305082
H      3.273029    0.832024   -1.710292
