61

C      7.000204    0.326686    1.397344
C      5.151220    0.950373    2.859787
C      0.278660   -1.384968    0.399685
C     -3.584229   -0.173118   -2.489435
C     -5.661362    0.597308    0.465013
C     -5.801646    1.302162    2.791301
C     -4.591566    2.687575    1.140413
C      4.229303   -1.741182    0.679424
C      4.271046    0.504120   -0.015639
C      3.349444   -2.040326   -0.339221
C      3.384591    0.202676   -1.041859
C     -3.647181    0.478019    1.838146
C      2.207292   -0.683773   -3.600473
C      5.661473   -0.137520    1.965553
C     -0.297878   -1.094626   -0.942754
C     -2.153320   -0.517302   -2.290015
C      4.709536   -0.462120    0.863644
C      2.901235   -1.074146   -1.230831
C      1.961116   -1.439303   -2.303586
C     -2.790076    0.403202    0.649857
C      0.549743   -1.153748   -2.026908
C     -1.352263   -0.559853   -3.424930
C     -1.645364   -0.781866   -1.036532
C     -0.022295   -0.875421   -3.274401
C     -4.912007    1.276208    1.568095
Br    -2.110681   -0.184290   -5.147096
N     -2.474518   -0.734730    0.110641
O     -2.314020    1.586302    0.101949
O      0.967682   -0.976248   -4.271537
H      7.639423   -0.556023    1.173540
H      6.772913    0.793657    0.417155
H      7.453353    1.009239    2.117463
H      5.431406    0.794393    3.928672
H      5.542276    1.955240    2.593274
H      4.035636    0.946004    2.834628
H      0.605351   -2.435729    0.461566
H     -0.530020   -1.290390    1.185335
H      1.037362   -0.637876    0.668904
H     -3.707949    0.900230   -2.214128
H     -3.919194   -0.353577   -3.518147
H     -4.185957   -0.749031   -1.737490
H     -6.762174    0.691672    0.562176
H     -5.361541   -0.473463    0.418682
H     -5.374866    1.084882   -0.496284
H     -6.215866    0.258720    2.904643
H     -5.250920    1.593961    3.706145
H     -6.655017    1.969030    2.557138
H     -3.713077    3.098829    1.677836
H     -5.505335    3.300867    1.335196
H     -4.425782    2.724971    0.038010
H      4.579260   -2.504060    1.378499
H      4.646840    1.512065    0.126110
H      2.981683   -3.049228   -0.470369
H      3.052130    0.980589   -1.722697
H     -3.958024   -0.511752    2.219887
H     -3.122637    0.983170    2.687432
H      3.067434   -1.084388   -4.162062
H      2.209584    0.407228   -3.479150
H      5.877091   -1.056670    2.547487
H      2.030113   -2.514678   -2.580312
H     -1.537636    1.509159   -0.554774
