60

C      6.660042   -1.593012    0.959745
C      7.501605    0.656902    0.572920
C     -2.527475   -2.764596   -1.636150
C     -0.544278    0.489999    1.480836
C     -6.436818   -0.604275    0.895486
C     -5.324163    1.496238    1.445335
C     -5.803379    0.934110   -0.895298
C      4.082694    0.786277    1.400519
C      4.744792    0.150322   -0.763038
C      2.851398    1.173044    0.903081
C      3.516306    0.538125   -1.248546
C     -0.769361   -1.150436   -2.359130
C      1.294266    1.804599   -2.385321
C      6.343069   -0.128507    1.150806
C     -1.580875   -1.658792   -1.376200
C     -0.614922   -0.082940    0.116530
C      5.054875    0.266777    0.577077
C      2.539155    1.057429   -0.437008
C      1.204083    1.490590   -0.899025
C      0.129453   -0.104436   -2.123036
C      0.201275    0.433312   -0.858476
C     -1.509556   -1.123967   -0.118123
C     -3.580184   -1.010690    1.209494
C     -5.371760    0.355465    0.463447
N     -2.309070   -1.585573    0.958581
N     -4.081309   -0.277555    0.307022
O     -4.280204   -1.221715    2.391337
O      1.024456    0.544091   -2.965714
H      6.843171   -1.759824   -0.106615
H      5.944193   -2.269214    1.428311
H      7.646238   -1.760654    1.484557
H      8.237807    0.932146    1.363760
H      7.152806    1.594154    0.088978
H      8.067464    0.089729   -0.185959
H     -2.057975   -3.483337   -2.352956
H     -2.832199   -3.255713   -0.686460
H     -3.481871   -2.352922   -2.069589
H     -0.432503    1.571936    1.386710
H      0.312976    0.036959    2.055618
H     -1.460284    0.268601    2.057522
H     -7.269472   -0.589276    0.163859
H     -6.909594   -0.336898    1.868645
H     -6.041951   -1.652605    0.934000
H     -6.105398    1.392210    2.241900
H     -4.315673    1.655705    1.884231
H     -5.581060    2.435099    0.922261
H     -5.753988    0.126455   -1.666566
H     -5.235605    1.826970   -1.159273
H     -6.873756    1.212051   -0.772334
H      4.315045    0.885620    2.473460
H      5.497187   -0.253422   -1.410444
H      2.143688    1.571427    1.617262
H      3.266761    0.446615   -2.315027
H     -0.820671   -1.571266   -3.363340
H      0.475543    2.506190   -2.629779
H      2.286916    2.205953   -2.657770
H      6.337500    0.063603    2.236620
H      0.930711    2.410771   -0.352788
H     -1.948401   -2.346834    1.555233
H     -4.751723   -0.471017    2.880647
