69

C     -5.486120   -3.358607    2.464016
C      0.940334    3.096707    0.277401
C     -1.706406    4.241793    0.489434
C     -0.944600   -0.917785   -1.880701
C     -6.056729    1.571700   -1.534642
C     -4.180494    2.362770   -2.987027
C     10.172700   -1.545032    0.464263
C     -5.249167   -1.033377    1.578991
C     -4.453550   -2.802736    0.262041
C      6.252193   -0.119613    0.574661
C      5.556557   -2.041111    1.754636
C      3.876851   -0.301552    1.199695
C     -4.849787   -0.111834    0.603846
C     -4.055610   -1.908912   -0.705517
C      7.558291   -0.572258    0.525786
C      6.864454   -2.530448    1.725007
C      3.069638   -0.741063   -0.003513
C     -5.059032   -2.388335    1.425718
C     -0.242213    2.352843   -0.228120
C     -1.515322    2.888707   -0.132999
C     -1.176513    0.411665   -1.274646
C      5.247437   -0.833235    1.178875
C     -4.245245   -0.527711   -0.557809
C      7.838028   -1.800821    1.119197
C      1.688083   -0.182716    0.050248
C     -2.454787    0.915242   -1.195498
C     -3.812954    0.409740   -1.609516
C     -0.074808    1.109633   -0.801473
C     -2.602346    2.160100   -0.618942
C     -4.581538    1.679274   -1.689928
N      1.246045    0.593947   -0.881600
O      0.852757   -0.506303    1.132177
O      9.125306   -2.274602    1.085841
O     -3.969102    2.453876   -0.651349
H     -4.923883   -4.304823    2.415679
H     -5.392120   -2.920550    3.492586
H     -6.580050   -3.609580    2.358742
H      0.936712    4.163656   -0.029954
H      1.870740    2.660682   -0.104669
H      0.994781    3.068723    1.392579
H     -2.703498    4.589457    0.143838
H     -1.642387    4.188454    1.595296
H     -0.945418    4.959707    0.117902
H     -1.712249   -1.146310   -2.668318
H     -0.922583   -1.741317   -1.148196
H      0.038268   -0.957947   -2.429215
H     -6.320898    0.534614   -1.244542
H     -6.623778    1.896058   -2.434166
H     -6.410569    2.226736   -0.694080
H     -3.210542    2.899098   -2.888327
H     -4.006129    1.594161   -3.786558
H     -4.932887    3.102637   -3.258637
H     10.278194   -0.593435    1.028030
H      9.899485   -1.275034   -0.577379
H     11.113153   -2.117076    0.506469
H     -5.724007   -0.670045    2.485325
H     -4.299572   -3.883928    0.135726
H      6.016565    0.833868    0.118453
H      4.818722   -2.664357    2.251236
H      3.356134   -0.561272    2.135301
H      3.939623    0.803197    1.150689
H     -5.016896    0.947221    0.763356
H     -3.577242   -2.243566   -1.622883
H      8.330602    0.011606    0.042330
H      7.116658   -3.481267    2.175657
H      3.551887   -0.511013   -0.952003
H      2.994093   -1.859766    0.067507
H     -3.738385   -0.100560   -2.605454
H     -0.144876   -0.532898    0.909127
