62

C      6.243070    1.130864    1.961074
C      4.439896    2.790500    1.947033
C      0.336403    0.783511   -1.601274
C     -3.973143   -1.718176   -2.107879
C     -4.567045   -0.188772    0.909497
C     -3.229823    0.560640    2.798284
C     -4.416452    2.191747    1.384671
C      4.209092    0.711462   -0.874353
C      3.495518   -0.038506    1.245340
C      3.366529   -0.203034   -1.465991
C      2.641495   -0.965577    0.631061
C     -2.418468    1.040801    0.481718
C      1.635147   -3.363839   -0.767804
C      5.200064    1.799029    1.106712
C     -0.412845   -0.473644   -1.685431
C     -2.492034   -1.727533   -1.929134
C      4.274195    0.794381    0.481054
C      2.567262   -1.058499   -0.740561
C      1.708853   -1.991804   -1.434893
C     -2.779836    1.377370   -0.898706
C      0.302378   -1.661396   -1.594352
C     -1.773900   -0.553191   -1.848260
C     -1.769701   -2.897538   -1.837002
C     -0.396029   -2.854559   -1.672233
C     -3.629263    0.896692    1.379683
N     -2.495494    0.671453   -1.939879
O     -3.493753    2.558629   -1.136904
O     -2.467365   -4.108565   -1.915208
O      0.547498   -3.904556   -1.552173
H      7.114154    1.805104    2.014306
H      6.587286    0.194820    1.456517
H      5.878850    0.946358    2.984792
H      5.178767    3.395496    2.495022
H      3.904243    3.473401    1.242864
H      3.750168    2.253256    2.623024
H      0.855929    0.947324   -0.641763
H      0.960819    0.996274   -2.500912
H     -0.441871    1.606904   -1.628670
H     -4.328261   -0.718910   -2.387958
H     -4.267175   -2.391991   -2.965100
H     -4.453802   -2.152410   -1.220448
H     -5.415558   -0.204979    1.626860
H     -4.998816    0.073407   -0.072079
H     -4.100213   -1.185969    0.947081
H     -2.620616    1.376163    3.246867
H     -2.711056   -0.416594    2.847697
H     -4.195989    0.430921    3.362768
H     -5.129846    2.195790    0.551490
H     -4.990683    2.240753    2.344962
H     -3.752343    3.075109    1.340949
H      4.813576    1.357542   -1.517258
H      3.570268    0.052158    2.319938
H      3.328918   -0.253837   -2.559818
H      2.035697   -1.613400    1.241301
H     -1.857799    0.075533    0.496848
H     -1.760351    1.798528    0.938196
H      2.549098   -3.943404   -0.887334
H      1.315988   -3.293869    0.286542
H      5.729778    2.363064    0.315381
H      2.091940   -2.227851   -2.479855
H     -3.372942    3.098698   -1.985655
H     -1.920407   -4.951278   -1.845636
