65

C      7.190164    2.162436   -0.640952
C      5.214123    3.655785   -0.331462
C      0.812299    0.543706    0.995083
C     -3.279230   -2.333800    0.535766
C     -5.908153    2.917384    1.057748
C     -5.547770    1.325641   -0.764642
C     -5.581690    0.566615    1.553330
C     -1.902248   -4.725523   -1.410559
C      4.724301    0.926969    0.539184
C      4.244036    0.574787   -1.756420
C      3.934702   -0.140177    0.863509
C      3.438001   -0.517823   -1.400166
C     -3.640549    1.931243    0.710834
C      2.542468   -3.182434   -0.657948
C      5.760500    2.460912   -1.052361
C      0.184966   -0.758457    0.716077
C     -1.800589   -2.151232    0.492346
C      4.876927    1.282215   -0.775211
C      3.280016   -0.880057   -0.086663
C      2.457635   -1.997881    0.296614
C     -2.833563    0.757081    0.303465
C      1.020356   -1.811791    0.412301
C     -1.199425   -0.938405    0.752041
C     -0.961421   -3.203788    0.188133
C      0.413037   -3.021671    0.152958
C     -5.128579    1.676542    0.629878
N     -1.995453    0.172749    1.067347
O     -3.032082    0.290812   -1.007689
O     -1.550323   -4.429637   -0.075571
O      1.438359   -3.953687   -0.134605
H      7.546846    2.908300    0.095470
H      7.297597    1.168325   -0.172922
H      7.890205    2.225670   -1.511558
H      4.118683    3.662967   -0.285016
H      5.590832    3.632453    0.716818
H      5.564251    4.620432   -0.797023
H      1.359116    0.582011    1.947533
H     -0.031338    1.286470    1.133100
H      1.366312    0.950041    0.122061
H     -3.497393   -3.316024    1.051876
H     -3.659070   -1.567168    1.234296
H     -3.744500   -2.307302   -0.467020
H     -6.949267    2.565948    1.249058
H     -5.512949    3.318145    2.012326
H     -5.946283    3.682786    0.279490
H     -5.391370    0.236556   -0.904589
H     -5.031475    1.933021   -1.538061
H     -6.635089    1.504844   -0.891453
H     -5.922641   -0.327831    0.986307
H     -6.435670    0.855977    2.200340
H     -4.741940    0.322256    2.240353
H     -2.779296   -5.432198   -1.385998
H     -2.179007   -3.776529   -1.901947
H     -1.045723   -5.204853   -1.924764
H      5.219800    1.475438    1.352426
H      4.378901    0.873863   -2.786865
H      3.815344   -0.421383    1.924997
H      2.962544   -1.041346   -2.211515
H     -3.347718    2.315831    1.688760
H     -3.423295    2.734484   -0.035291
H      3.485468   -3.720013   -0.597031
H      2.266595   -2.897599   -1.688036
H      5.758954    2.623336   -2.133161
H      2.818412   -2.391939    1.284130
H     -2.336650   -0.273484   -1.459457
