42

C      4.887532    0.954573   -0.454964
C      5.172658   -1.375472   -0.303499
C     -4.039963   -0.532884   -1.201153
C      2.907684   -0.437544   -0.229419
C      6.241044    1.149320   -0.554068
C      6.560687   -1.243356   -0.400220
C     -5.321931   -0.064893   -1.401895
C      2.251320   -1.574286   -0.105885
C     -2.129754   -1.062784    0.247227
C     -4.241454   -0.060644    1.140510
C      4.339914   -0.294381   -0.329815
C     -3.514615   -0.524637    0.070729
C      7.052422    0.035809   -0.524057
C     -1.103960    0.005814   -0.018623
C     -6.080173    0.412669   -0.326684
C     -5.535997    0.411950    0.936760
C      0.748555   -1.591627   -0.010133
C     -1.232467    1.176108    0.903025
N      0.186802   -0.509926   -0.058182
O      8.435907    0.172019   -0.620790
O     -7.352017    0.865087   -0.597588
O     -6.238017    0.871790    2.037467
O      0.140158   -2.827971    0.123842
O     -0.268369    1.480083    1.637176
O     -2.383089    1.921278    0.956384
H      4.258603    1.855994   -0.481010
H      4.783897   -2.380106   -0.206021
H     -3.433984   -0.908862   -2.026569
H      2.274468    0.473214   -0.255513
H      6.669881    2.154137   -0.654020
H      7.180051   -2.124509   -0.375054
H     -5.731205   -0.075247   -2.416062
H      2.832850   -2.475225   -0.083264
H     -1.952116   -1.898248   -0.439268
H     -2.009921   -1.426048    1.294967
H     -3.793138   -0.078680    2.124093
H     -1.415796    0.435409   -1.052528
H      8.852175    1.096643   -0.714130
H     -7.934951    1.214296    0.122330
H     -7.166380    1.227207    1.989517
H     -0.462081   -3.051364    0.930916
H     -2.435229    2.864676    1.325473
