32

C      3.524736    1.054996    1.624990
C     -2.923037    0.561540    1.365191
C     -3.673286    0.713953   -0.982271
C     -2.701465   -1.355467   -0.170505
C      3.576850    0.128766    0.406945
C      2.243336   -1.203668   -1.281647
C      2.274974   -0.331313   -0.055616
C      1.191049    0.498582   -0.652945
C     -0.179527    0.016463   -0.082887
C     -2.621991    0.201416   -0.046596
N      1.345240   -0.287703   -1.913731
O     -0.142263   -0.913818    0.736627
O     -1.348453    0.578010   -0.477575
H      2.537271    1.167390    2.060601
H      3.865381    2.046236    1.202973
H      4.233497    0.713386    2.372805
H     -3.853713    0.022468    1.664595
H     -2.168290    0.386100    2.112898
H     -3.216308    1.654534    1.376857
H     -3.851111    1.775391   -0.774171
H     -4.625641    0.118682   -0.852678
H     -3.381117    0.505199   -2.052981
H     -1.721606   -1.822669   -0.180504
H     -3.245283   -1.607005   -1.098707
H     -3.245306   -1.677668    0.736919
H      4.086807   -0.831501    0.868989
H      4.249140    0.479929   -0.355688
H      3.229306   -1.298029   -1.810832
H      1.809215   -2.186533   -1.084374
H      1.769209   -0.949018    0.820492
H      1.231455    1.535454   -0.805542
H      1.730930    0.305895   -2.671631
