52

C     -2.339012   -4.289388   -0.961011
C      5.598515    2.195273    1.118926
C     -1.776403   -3.309794    0.079396
C      4.118910   -0.597357   -1.760070
C     -3.693579    4.227357   -0.796541
C      2.896648   -1.198696   -1.541113
C     -3.039895    3.075866   -0.547918
C      4.631374    0.317638   -0.838571
C      0.436448    0.373832    1.265497
C      1.908417    0.300662    1.717115
C     -3.346123    0.618912    0.260525
C     -1.935640   -1.900772   -0.404262
C     -1.853033    0.444363    0.073552
C     -5.038890    4.274470   -0.591076
C      0.864913   -1.583586   -0.223592
C      2.162568   -0.909943   -0.414136
C     -0.046099   -0.978136    0.776793
C     -3.682031    2.016446   -0.116338
C      2.672295   -0.014375    0.481942
C      3.906852    0.605897    0.277867
N     -1.433376   -0.886389    0.450063
O      4.371766    1.513922    1.228990
S     -5.377592    2.572236   -0.010982
Cl     0.683548    0.000000    0.000000
H     -1.698016   -4.298815   -1.866718
H     -2.410252   -5.278146   -0.461952
H     -3.357885   -4.001479   -1.273911
H      5.861173    2.458522    0.054106
H      5.502813    3.151516    1.695468
H      6.405639    1.565159    1.549786
H     -2.458420   -3.498264    0.979972
H     -0.800331   -3.627878    0.409507
H      4.722025   -0.797306   -2.622100
H     -3.200306    5.174921   -1.169631
H      2.556191   -1.910476   -2.308229
H     -1.916203    3.031849   -0.716084
H      5.592232    0.772751   -1.032597
H      0.458014    1.148240    0.467704
H     -0.102112    0.661944    2.181542
H      2.166442    1.326147    2.043814
H      2.030381   -0.450606    2.490969
H     -3.630429    0.391303    1.303632
H     -3.928780   -0.007117   -0.463331
H     -1.574847   -1.853152   -1.466016
H     -3.046819   -1.740141   -0.513644
H     -1.409031    1.146545    0.804633
H     -1.597144    0.688386   -0.952757
H     -5.768376    5.032214   -0.706348
H      0.418655   -1.665008   -1.242548
H      1.160803   -2.653268    0.024784
H      0.017551   -1.636277    1.697616
H     -0.683548    0.000000    0.000000
