31

C     -1.918338   -0.802512    1.431124
C      3.961979   -0.429622    1.125962
C      3.382937   -1.504819    0.490813
C      3.499482    0.846531    0.853567
C      2.353815   -1.274641   -0.402435
C      2.472685    1.061298   -0.039305
C      0.784375    0.148289   -1.646686
C     -1.317227    1.187056   -0.528289
C     -2.445669   -0.796393    0.015141
C      1.878103   -0.010005   -0.687896
C     -2.740883    0.638497   -0.384488
C     -1.290946   -1.094049   -0.878764
N     -3.425136    1.328760    0.681748
N     -0.531823    0.097693   -1.050037
O     -1.074480   -2.234525   -1.371866
H     -2.424363   -1.615765    1.990343
H     -2.052742    0.185697    1.915468
H     -0.831289   -1.023788    1.483669
H      4.759597   -0.529378    1.826921
H      3.749382   -2.504598    0.707883
H      3.936364    1.703211    1.337785
H      1.936491   -2.170134   -0.873464
H      2.136914    2.071379   -0.227866
H      0.901477    1.080711   -2.275211
H      0.882101   -0.685250   -2.396235
H     -1.018754    1.500694    0.490238
H     -1.396073    2.033664   -1.236736
H     -3.287336   -1.473727   -0.145421
H     -3.280137    0.643232   -1.331181
H     -4.449521    1.279953    0.470090
H     -3.150987    2.342542    0.655128
