63

C      7.322915   -2.047081   -1.303946
C      1.345124   -2.658889    1.289262
C      1.341673    5.039341    0.979336
C     -0.294948    6.632455    0.080737
C      5.648294   -0.248633   -0.812502
C      5.620832   -2.255948    0.470246
C      4.576092    0.220620   -0.070952
C      4.541184   -1.760975    1.202980
C     -3.422468   -1.796094   -2.489712
C     -3.337422   -3.305064   -2.429784
C      0.261426    2.127948    0.544849
C     -1.878471    2.072120   -0.518106
C     -6.383441   -1.372853    0.997478
C     -6.022144   -3.536097    0.038686
C      6.163242   -1.496150   -0.529003
C      0.648676   -1.411922    0.888108
C     -0.793006    2.798872   -0.008892
C     -6.793256   -2.687048    0.825848
C      4.006585   -0.519551    0.942089
C     -5.234486   -0.871768    0.414839
C      0.281713    0.728286    0.615177
C     -3.220394   -1.296772   -1.041534
C     -4.878154   -3.019385   -0.535501
C     -1.900041    0.680077   -0.469078
C     -4.489141   -1.708817   -0.351483
C     -0.812602    0.057018    0.099112
C     -0.827771    4.232845   -0.085978
F     -7.934214   -3.148470    1.416525
F     -4.829547    0.403503    0.576646
N     -0.526725   -1.240972    0.296077
N      0.079906    5.190955    0.333274
N      1.158251   -0.166599    1.089109
O     -1.901470    4.722093   -0.649165
O      2.828473    1.615866    2.063228
O      2.728884   -0.486708    3.215583
O     -4.066430   -3.833365   -1.337543
O     -2.995341    0.048991   -0.987331
S      2.670514    0.149108    1.823073
H      7.141985   -3.086470   -1.617028
H      7.573903   -1.367976   -2.145471
H      8.198272   -2.076688   -0.604216
H      1.760214   -2.514902    2.297163
H      0.547362   -3.450260    1.412905
H      2.030817   -3.044921    0.540093
H      1.280498    4.575172    1.965981
H      1.772613    6.069081    1.203052
H      2.088938    4.520669    0.338725
H     -0.739169    7.002519    1.015446
H     -1.007409    6.669184   -0.761906
H      0.623052    7.202643   -0.166917
H      6.110115    0.312843   -1.609752
H      6.045817   -3.224821    0.666237
H      4.170983    1.200750   -0.293174
H      4.132143   -2.374230    1.985733
H     -2.643622   -1.407079   -3.146524
H     -4.453083   -1.473775   -2.800453
H     -2.265393   -3.569453   -2.312637
H     -3.683564   -3.729923   -3.399820
H      1.129261    2.594376    0.954023
H     -2.734852    2.593435   -0.966815
H     -6.985902   -0.716838    1.610021
H     -6.319907   -4.577151   -0.114818
H     -2.455385   -1.977123   -0.631602
