42

C     -3.895898    0.006518   -1.223837
C     -4.030729    0.986164    0.959602
C      3.187457   -1.954027   -0.504350
C     -1.842992    0.733199   -0.162939
C     -5.258428   -0.147440   -1.207901
C     -5.419114    0.826188    0.969046
C      3.605468   -2.757632    0.535650
C     -1.137649    1.256475    0.801436
C      2.789100    0.246752   -1.519817
C      3.715920    0.017574    0.759658
C     -3.285973    0.585533   -0.112282
C      3.240856   -0.589035   -0.396456
C     -5.992200    0.256500   -0.131617
C      1.288545    0.552303   -1.372180
C      4.079891   -2.178194    1.690636
C      4.133306   -0.804208    1.798428
C      0.311022    1.407773    0.757262
C      0.904020    1.398918   -2.540534
N      1.057315    1.087550   -0.138548
O     -7.370649    0.077816   -0.165788
O      4.516998   -2.914906    2.776387
O      4.602347   -0.161106    2.939116
O      0.872252    2.007057    1.925658
O      1.053447    1.047788   -3.721024
O      0.353465    2.637646   -2.252704
H     -3.332398   -0.313167   -2.071168
H     -3.622621    1.435230    1.838531
H      2.818754   -2.466042   -1.400878
H     -1.287097    0.399090   -1.039802
H     -5.765427   -0.596374   -2.060888
H     -5.994128    1.145427    1.818383
H      3.577835   -3.834380    0.486163
H     -1.698144    1.595146    1.689498
H      3.343827    1.195517   -1.521811
H      2.916897   -0.282619   -2.462198
H      3.751003    1.079997    0.827848
H      0.813628   -0.453429   -1.522101
H     -8.022439    0.757022   -0.522712
H      4.483043   -3.907380    2.709869
H      4.933225   -0.647880    3.759776
H      1.868182    2.254840    1.911882
H     -0.261916    3.123979   -2.903293
