34

C     -3.454499   -0.453890   -0.492706
C      1.908435   -1.121716    0.511312
C      3.245782   -1.335932    0.697439
C     -0.570125   -0.663113   -1.384731
C     -1.425184   -1.728681   -0.782561
C      2.469582    0.850535   -0.670446
C     -1.719731   -0.477075    1.185837
C     -1.289376    1.913875    0.940881
C      1.500739   -0.003422   -0.188819
C     -0.676671    0.508657    0.852071
C      0.060267    0.290316   -0.431563
C      4.239464   -0.500982    0.228402
C      3.818319    0.617357   -0.472218
Cl     5.937136   -0.785023    0.472082
Cl     5.027376    1.731495   -1.102851
N     -2.362634   -1.124216    0.108532
O     -0.307222    2.877836    0.624430
H     -3.193314   -0.102961   -1.518824
H     -3.852821    0.400897    0.068130
H     -4.279001   -1.207232   -0.641473
H      1.131313   -1.770140    0.877204
H      3.546137   -2.216854    1.248033
H      0.234493   -1.074943   -2.036466
H     -1.235092   -0.097043   -2.087231
H     -1.981186   -2.207008   -1.628701
H     -0.864835   -2.500856   -0.202923
H      2.192219    1.750169   -1.231518
H     -2.501398    0.017824    1.826810
H     -1.292602   -1.275966    1.860906
H     -1.599006    2.135489    1.971858
H     -2.091287    2.025464    0.189172
H      0.087448    0.496617    1.677809
H      0.055783    1.296712   -0.953024
H     -0.758508    3.733809    0.485150
