33

C      3.179603   -0.306359   -1.550835
C      3.597705   -0.071179    0.789348
C      1.268002    0.000187   -0.084478
C      4.532852   -0.429957   -1.772893
C      4.945559   -0.194463    0.567381
C      0.645375    0.174681    1.070155
C     -3.590392   -1.008981    0.228506
C      2.706796   -0.123987   -0.247423
C      5.430963   -0.376642   -0.727218
C     -2.940297    0.339671    0.157561
C     -0.800959    0.292066    1.163390
C     -5.044481   -0.881078    0.359282
C     -3.393018    1.110853   -1.016733
N     -1.498800    0.226430    0.101407
O      6.788674   -0.505939   -0.996164
O     -1.410023    0.471545    2.383055
O     -5.775802   -1.908408    0.145367
O     -5.736674    0.263210    0.702043
O     -4.583688    1.372304   -1.263496
O     -2.439866    1.581565   -1.912949
H      2.468296   -0.346604   -2.362848
H      3.245786    0.068324    1.790872
H      0.584156   -0.046529   -0.946739
H      4.943247   -0.574474   -2.780914
H      5.693544   -0.159191    1.354379
H      1.245895    0.229176    1.962354
H     -3.150353   -1.590355    1.069013
H     -3.330872   -1.540206   -0.734240
H     -3.216425    0.924426    1.075112
H      7.287722    0.366786   -1.185636
H     -2.303925    0.015219    2.628233
H     -6.722979    0.294285    0.863605
H     -2.625621    2.333627   -2.565824
