33

C      3.164708    0.154164    0.818298
C      3.662288   -1.104337   -1.161917
C      1.362523   -0.415216   -0.764027
C      4.499133    0.132537    1.185612
C      4.968446   -1.116828   -0.787029
C      0.431988    0.272655   -0.139181
C     -4.087217    0.758259   -0.873353
C      2.734256   -0.449145   -0.333089
C      5.384292   -0.508331    0.368842
C     -3.085085    1.367179    0.104327
C     -0.974155    0.253347   -0.650356
C     -4.209740   -0.672001   -0.579289
C     -3.612025    1.105062    1.495740
N     -1.826006    0.897674   -0.083141
O      6.732110   -0.526571    0.745460
O     -1.213109   -0.526741   -1.776791
O     -4.409551   -1.115851    0.591411
O     -4.106034   -1.629968   -1.596460
O     -2.865515    0.498639    2.323324
O     -4.875936    1.504651    1.888617
H      2.469008    0.666415    1.482010
H      3.298253   -1.561505   -2.048876
H      1.054814   -0.979952   -1.647222
H      4.787738    0.625040    2.103294
H      5.694785   -1.618125   -1.420688
H      0.645644    0.850194    0.730019
H     -5.076303    1.228266   -0.567004
H     -3.820905    0.969770   -1.901827
H     -3.208824    2.497361   -0.035548
H      7.407587    0.155065    0.494729
H     -1.933420   -0.276620   -2.450153
H     -3.761883   -2.574729   -1.369937
H     -5.231868    1.139641    2.786558
