41

C      3.175490   -2.179948    1.952641
C     -4.535555    1.041856    0.008912
C     -3.268748    1.436950   -0.751882
C     -4.068082    0.037555    1.058842
C      2.893725    1.157271   -0.069529
C      3.639697    2.158399   -0.524389
C     -2.208975    1.637958    0.307042
C     -2.741851   -0.595807    0.684149
C      1.120837   -1.570419   -1.014574
C     -0.657990    0.007923   -0.266509
C      0.097623   -1.267081    0.040915
C      2.464295   -1.406990   -0.376264
C      3.116075   -0.113178   -0.635802
C      4.570793    2.018787   -1.473592
C      0.888113   -1.150914    1.280057
Br     5.757532    3.160430   -2.325333
N      2.194127   -1.604276    1.031875
N     -1.646758    0.356176    0.701633
O      0.499320   -0.717461    2.416283
S      4.439691    0.194538   -1.845172
H      3.047892   -1.854357    2.982588
H      4.214180   -1.926001    1.608193
H      3.102225   -3.285914    1.905972
H     -5.311901    0.641769   -0.641625
H     -4.927070    1.972106    0.489659
H     -3.483727    2.388237   -1.293331
H     -2.988596    0.662409   -1.491495
H     -4.038061    0.484201    2.070285
H     -4.817971   -0.777425    1.071403
H      2.098356    1.220708    0.729641
H      3.480114    3.202608   -0.083045
H     -2.647675    2.204567    1.154058
H     -1.382120    2.210809   -0.180734
H     -2.586837   -1.441496    1.374716
H     -2.849095   -1.007961   -0.337476
H      0.953984   -0.896291   -1.877794
H      0.964431   -2.640558   -1.338564
H     -1.162641   -0.184822   -1.258622
H      0.080101    0.806460   -0.453269
H     -0.609362   -2.123351    0.203465
H      3.134415   -2.257463   -0.721619
