36

C      3.430466    0.854938    0.627211
C      4.244941   -0.416732   -1.169688
C      1.864311   -0.580539   -0.665666
C      4.723984    1.331385    0.827332
C      5.513540    0.048705   -0.975664
C     -3.841918   -0.210420    0.691688
C      0.814329   -0.250809    0.048326
C     -3.717688    1.212542    0.216161
C      3.176419   -0.028813   -0.378860
C      5.773642    0.945377    0.044423
C     -2.793353   -1.107012    0.068061
C     -0.473151   -0.869768   -0.328016
C     -4.778581    2.019037    0.873539
C     -2.952572   -2.496924    0.563655
N     -1.507035   -0.557801    0.359449
O      7.049737    1.439341    0.271130
O     -0.543029   -1.747585   -1.381202
O     -5.611837    1.538438    1.682466
O     -4.889389    3.383157    0.606030
O     -4.029500   -3.121075    0.385556
O     -1.942574   -3.180664    1.241136
H      2.635630    1.195590    1.279222
H      4.048628   -1.123345   -1.976120
H      1.759693   -1.283810   -1.495076
H      4.853025    2.038369    1.654147
H      6.330769   -0.275704   -1.614435
H     -3.708686   -0.211659    1.792959
H     -4.857325   -0.559374    0.390652
H      0.890733    0.431537    0.860481
H     -2.713092    1.645302    0.471202
H     -3.820911    1.291323   -0.884660
H     -2.988427   -1.107806   -1.038006
H      7.326614    2.286477   -0.203622
H     -1.395382   -2.208355   -1.680799
H     -5.790513    3.841663    0.540914
H     -2.081498   -4.164987    1.515413
