42

C     -3.445781   -2.107665   -0.143070
C     -0.695878    3.858207    0.208431
C     -1.971754   -2.436765   -0.038158
C      1.425572   -0.943271    0.994798
C      2.014321   -2.144104    1.359957
C      1.607465    1.905859   -0.125951
C      1.074433    2.499322    1.118691
C      2.066448   -1.315645   -1.219560
C     -1.070607    1.548966    0.751886
C     -1.401638   -0.386012   -0.730574
C      1.432623   -0.487763   -0.313504
C     -0.645811    0.890219   -0.545474
C      0.812026    0.793385   -0.733453
C      2.633369   -2.928186    0.406722
C      2.654673   -2.502685   -0.890440
Cl     3.382386   -4.456911    0.874234
Cl     3.456815   -3.540233   -2.065709
N     -0.324900    2.746892    1.021319
O     -1.204427   -1.318644    0.285650
Br     0.760602    0.000000    0.000000
H     -4.041455   -3.010569    0.150574
H     -3.651162   -1.290655    0.567007
H     -3.663724   -1.846559   -1.193174
H     -0.049131    4.714865    0.477114
H     -1.730257    4.155080    0.486127
H     -0.586042    3.702906   -0.875242
H     -1.660293   -2.889202   -1.002186
H     -1.856551   -3.236949    0.724555
H      0.961491   -0.375779    1.759650
H      2.011400   -2.505919    2.385690
H      1.771388    2.735905   -0.871306
H      2.654762    1.542014    0.091104
H      1.580074    3.505330    1.238650
H      1.324987    1.966713    2.055749
H      2.098540   -1.003562   -2.254574
H     -2.145272    1.872567    0.612536
H     -1.070667    0.887225    1.613551
H     -2.510255   -0.210849   -0.762666
H     -1.184589   -0.844431   -1.740270
H     -1.055113    1.589363   -1.341554
H      1.002535    0.867545   -1.849479
H     -0.760602    0.000000    0.000000
