65

C      7.189752   -0.030809   -1.454722
C      7.462318   -1.792706    0.233614
C     -3.791160   -2.500256   -2.201312
C     -5.869265    1.835021    0.683261
C     -3.213595    2.729999    5.033906
C      3.266132   -1.767140   -1.050432
C      2.173248   -1.269012   -0.394451
C     -1.289751   -0.592094   -1.395695
C     -1.806922   -1.328431   -2.614169
C      4.678584   -0.427824    0.259385
C      1.155406    0.671714    2.531992
C     -3.415017    1.763650    2.240106
C     -4.105308    0.910676   -2.745182
C      7.014814   -1.499169   -1.171885
C      4.566444   -1.359973   -0.741865
C      2.297052   -0.335274    0.610323
C     -2.395906    0.363955   -1.092765
C      3.556656    0.080301    0.927683
C     -3.586233   -0.122460   -1.735040
C     -0.005537    1.178999    3.094303
C      1.089175    0.218507    1.241697
C     -3.479022    1.309551    0.953226
C     -2.260358    1.724429    2.969104
C     -2.365917    0.777954    0.302034
C     -1.148194    1.198554    2.334773
C     -1.186141    0.726538    1.015787
Cl     3.930304    1.322874    2.114794
N      5.668231   -1.918185   -1.445250
N     -3.214654   -1.246313   -2.612957
O     -5.194357    0.399969   -3.446368
O      0.031497    1.596767    4.262804
O     -4.642163    1.341500    0.206412
O     -2.193463    2.184792    4.277881
O     -0.050027    0.261707    0.552133
H      7.689886    0.487636   -0.629099
H      6.203315    0.403638   -1.742007
H      7.870430    0.108101   -2.348325
H      7.879529   -0.904284    0.748661
H      8.287436   -2.553073    0.236944
H      6.655428   -2.220244    0.841912
H     -4.008853   -3.160291   -3.074144
H     -3.179245   -3.045573   -1.438933
H     -4.754520   -2.258646   -1.695802
H     -5.818818    2.952015    0.652459
H     -5.981640    1.451473    1.734244
H     -6.687127    1.417285    0.068374
H     -4.198111    2.405161    4.647012
H     -3.172524    3.857513    4.990556
H     -3.165423    2.420142    6.109541
H      3.163225   -2.515305   -1.854408
H      1.191593   -1.655574   -0.692618
H     -0.337520   -0.105160   -1.668113
H     -1.154957   -1.329847   -0.556671
H     -1.288383   -0.927197   -3.509982
H     -1.439216   -2.395899   -2.528594
H      5.674246   -0.082348    0.526024
H      2.059458    0.605098    3.104452
H     -4.329592    2.164682    2.667262
H     -4.354884    1.872902   -2.348801
H     -3.309122    1.065020   -3.536003
H      7.726540   -2.039388   -1.886763
H     -2.074153    1.324117   -1.667808
H     -4.396323   -0.525061   -1.120171
H      5.456371   -2.648251   -2.172340
H     -5.073668   -0.576454   -3.599986
