66

C     -4.485636   -3.844020   -0.415709
C     -6.231929    0.622088    0.264586
C     -4.095025    5.139900    1.715301
C      7.932405   -1.759813   -0.024664
C      7.874916   -1.631455   -1.520272
C      3.678528   -0.339109   -1.236855
C      2.407198    0.198389   -1.053622
C     -2.414022   -1.261183   -1.876114
C      6.659086   -1.160519    0.521871
C      6.932170   -0.459428   -1.739203
C     -2.951637   -2.698436   -1.904779
C      4.501030    1.040289    0.462739
C      0.661873    2.937924    0.589027
C     -4.017663    2.256540    0.689409
C     -2.159109   -2.628007    1.386605
C      4.738885    0.078122   -0.477798
C      2.151453    1.176131   -0.101312
C     -2.430153   -0.935451   -0.420414
C      3.235108    1.577757    0.652054
C     -3.096767   -1.998949    0.306743
C     -0.605662    3.415326    0.834670
C      0.772617    1.635223    0.128037
C     -3.851066    0.970479    0.220486
C     -2.941733    3.085981    0.891004
C     -2.586116    0.461927   -0.062093
C     -1.679361    2.585003    0.610690
C     -1.482272    1.295116    0.143633
Cl     3.000807    2.722690    1.967045
N     -3.294402   -3.089147   -0.613029
N      6.029392   -0.470092   -0.628590
O     -1.854297   -1.682925    2.358567
O     -0.752220    4.610389    1.269117
O     -4.921285    0.121383    0.000378
O     -3.025430    4.363885    1.349272
O     -0.264280    0.882221   -0.077484
H     -4.797755   -3.796288    0.677295
H     -5.324700   -3.570832   -1.094408
H     -4.288746   -4.931676   -0.646414
H     -7.007443   -0.169608    0.260550
H     -6.258731    1.095940    1.262110
H     -6.483980    1.456205   -0.471662
H     -4.413047    4.996825    2.774710
H     -4.932901    5.132615    0.991877
H     -3.739788    6.217316    1.700207
H      8.780681   -1.170303    0.423536
H      8.019983   -2.851787    0.268501
H      8.887355   -1.415602   -1.954304
H      7.438052   -2.540747   -1.969561
H      3.803969   -1.109756   -2.010891
H      1.572925   -0.135191   -1.655094
H     -1.477178   -1.118206   -2.403115
H     -3.239790   -0.684793   -2.420558
H      6.823404   -0.449071    1.357145
H      5.976838   -1.994770    0.826215
H      7.560863    0.481068   -1.717756
H      6.465657   -0.540868   -2.734334
H     -2.066799   -3.298821   -2.288159
H     -3.756246   -2.828009   -2.670890
H      5.307045    1.392346    1.070109
H      1.455685    3.632490    0.735162
H     -4.986606    2.621410    0.898589
H     -2.664296   -3.476908    1.874774
H     -1.249496   -3.046542    0.877709
H     -1.257960   -1.147709   -0.172111
H     -4.034315   -1.764061    0.835209
H     -1.548083   -2.202899    3.166266
