55

C      6.593066    2.303363    1.944063
C     -3.162456    0.828678    2.589800
C      5.064668    0.028838   -0.630856
C      3.869791   -0.533363   -0.914111
C     -1.261453    1.047458    0.412923
C     -1.995922    2.222824    1.070513
C      4.088193    1.034412    1.269761
C     -2.879408   -2.894604   -1.858628
C      1.835408   -2.391311   -1.105584
C     -4.438608    1.810799   -0.600868
C      5.194980    0.839751    0.488581
C      2.694292   -0.361676   -0.138348
C     -2.331727    0.466861   -0.448379
C      2.844872    0.429851    0.950665
C     -3.600176    0.804046    0.206231
C     -3.122142   -1.649581   -1.351688
C     -1.577412   -3.408423   -1.922778
C      0.775283   -3.132915   -1.537496
C      1.540029   -1.103328   -0.581537
C     -2.064641   -0.893273   -0.897845
C     -0.516325   -2.658160   -1.471100
C     -0.754584   -1.380639   -0.948695
Cl     1.563710    0.676923    2.099447
N      6.434897    1.447735    0.811238
N     -3.237983    1.615928    1.410162
O     -5.533897    2.134937    0.220246
O     -4.447626   -1.174799   -1.308844
O     -1.427656   -4.657827   -2.443873
O      1.032982   -4.288790   -2.007193
O      0.309237   -0.703291   -0.538769
Cl     0.683262    0.000000    0.000000
H      7.491624    2.971711    1.843100
H      5.699940    2.954638    2.045931
H      6.715301    1.758441    2.904613
H     -3.272967    1.538218    3.456788
H     -2.211216    0.315285    2.765423
H     -4.042196    0.148565    2.671074
H      5.963920   -0.094860   -1.211086
H      3.786440   -1.144672   -1.792186
H     -0.960173    0.311858    1.200583
H     -0.432773    1.417877   -0.201500
H     -1.458215    2.582585    1.956389
H     -2.131909    2.965264    0.285266
H      4.124808    1.658767    2.160130
H     -3.713930   -3.482847   -2.214011
H      2.853833   -2.728159   -1.131664
H     -3.815005    2.713792   -0.791717
H     -4.746599    1.394600   -1.562851
H     -2.294679    1.099988   -1.408815
H     -4.278172    0.012464    0.508660
H      7.260708    1.263313    0.199791
H     -6.064639    2.887861   -0.181467
H     -5.213624   -1.709940   -1.632003
H     -0.749868   -5.295172   -2.637485
H     -0.683262    0.000000    0.000000
