50

C     -4.067234    2.239413    0.161644
C      5.106977    1.112837    0.111964
C      4.094357    0.218266    0.284958
C     -1.839869    0.289665   -1.490856
C     -2.649341    1.564566   -1.567245
C      3.727510    2.390725   -1.263122
C     -1.967821   -3.707905    1.028533
C      2.348208   -1.953220    0.315806
C     -2.045465    1.285612    2.027620
C      4.931907    2.228383   -0.677063
C      2.820501    0.365702   -0.319476
C     -2.329360   -0.169530   -0.060085
C      2.679585    1.463695   -1.086218
C     -1.955899    1.123998    0.588896
C     -2.472386   -2.473083    0.686312
C     -0.622123   -3.892270    0.992227
C      1.576261   -3.029158    0.637511
C      1.831470   -0.686741   -0.024293
C     -1.655590   -1.382180    0.295378
C      0.214200   -2.847177    0.624987
C     -0.301789   -1.587098    0.279999
Cl     1.206765    1.789776   -1.959137
N      5.957157    3.196341   -0.866621
N     -2.713730    2.076940   -0.202485
O     -1.238064    0.310925    2.658711
O     -3.836807   -2.350165    0.746371
O     -0.033801   -5.132812    1.317075
O      2.033392   -4.157361    0.937312
O      0.529728   -0.589696   -0.027987
H     -4.614960    1.287244    0.336730
H     -4.233592    2.898270    1.039218
H     -4.599339    2.746556   -0.682559
H      6.089628    1.001449    0.578148
H      4.258015   -0.612982    0.925478
H     -0.808573    0.489021   -1.425762
H     -2.157932   -0.493078   -2.198788
H     -3.681807    1.233845   -1.898928
H     -2.330406    2.285993   -2.309298
H      3.536877    3.260357   -1.896680
H     -2.638143   -4.528435    1.326229
H      3.416318   -2.090953    0.284463
H     -1.592722    2.275647    2.359005
H     -3.043670    1.254824    2.485124
H     -3.393545   -0.253522   -0.193603
H     -0.885111    1.372701    0.287138
H      5.709340    4.215057   -0.933486
H      6.963021    2.955869   -0.949755
H     -0.283582    0.559170    2.501586
H     -4.453408   -1.620759    0.576498
H     -0.585148   -5.934724    1.577293
