56

C     -3.374994   -3.270599    0.367434
C     -4.459786    2.203861    0.340302
C     -1.221203    5.663338   -0.987420
C      4.247876   -2.513893    0.915785
C      3.300958   -1.491549    0.790953
C     -0.382439   -1.571450    1.146155
C     -1.284917   -2.818136    1.334350
C      5.639035   -1.342505   -0.598159
C      2.721848    1.867803   -0.513561
C     -1.838518    2.952237   -0.202777
C     -3.090745   -1.094114   -1.308829
C      5.420481   -2.422017    0.208967
C      3.504239   -0.391457   -0.020259
C     -1.494013   -0.653560    0.630559
C      4.671112   -0.323068   -0.711484
C     -1.942929   -1.533143   -0.512579
C      1.709935    2.829716   -0.633068
C      2.440005    0.579994   -0.143076
C     -2.086002    1.651163    0.166727
C     -0.570752    3.346585   -0.470741
C     -1.074768    0.684374    0.284220
C      0.431488    2.410990   -0.358708
C      0.223001    1.087580    0.012304
Cl     5.093331    0.946360   -1.854061
N     -2.054884   -2.842453    0.075276
N      6.394489   -3.434318    0.313869
O     -3.259700   -1.995509   -2.379647
O      1.963230    4.021966   -0.976211
O      6.245822   -4.549846    1.103057
O      7.450624   -3.334466   -0.330893
O     -3.403098    1.298885    0.435837
O     -0.262149    4.645248   -0.848165
O      1.172191    0.212605    0.117305
H     -4.136186   -3.044762   -0.387315
H     -3.351875   -4.397013    0.452080
H     -3.773674   -2.922638    1.343583
H     -4.404966    2.877275    1.225074
H     -4.453036    2.838492   -0.558145
H     -5.455501    1.681054    0.362134
H     -0.653291    6.607693   -1.215855
H     -1.863620    5.449131   -1.877486
H     -1.867892    5.792327   -0.097407
H      4.102110   -3.378212    1.544503
H      2.415457   -1.632288    1.391029
H      0.306648   -1.878613    0.358590
H      0.066840   -1.234377    2.065932
H     -0.704786   -3.723984    1.493249
H     -1.971875   -2.541787    2.160134
H      6.564332   -1.284658   -1.146430
H      3.701070    2.262891   -0.705797
H     -2.627650    3.698073   -0.292119
H     -2.876816   -0.127577   -1.796897
H     -4.050452   -0.978785   -0.757712
H     -2.292214   -0.693012    1.400087
H     -1.051707   -1.602003   -1.207930
H     -2.449683   -2.587853   -2.472807
