56

C     -3.215250    2.831019   -0.290149
C     -4.522772   -2.634044   -0.341081
C     -1.008853   -5.814808   -0.853671
C      3.563367    2.882977    1.080681
C      2.748068    1.758758    0.972249
C     -1.440006    1.065256    1.626865
C     -1.660108    2.556624    1.467802
C      5.275921    1.707149   -0.068344
C      2.626617   -1.768533   -0.053705
C     -1.846331   -3.130636   -0.375069
C     -1.176927    1.639121   -1.990366
C      4.843301    2.853184    0.554305
C      3.173843    0.585946    0.346655
C     -1.843451    0.490581    0.215672
C      4.439097    0.592133   -0.164577
C     -1.158535    1.604741   -0.535123
C      1.736022   -2.814748   -0.243652
C      2.207809   -0.490666    0.174516
C     -2.217335   -1.844169   -0.135386
C     -0.539717   -3.465209   -0.401956
C     -1.283123   -0.809515    0.091154
C      0.391300   -2.492381   -0.187174
C      0.039442   -1.172395    0.053136
Cl     5.085095   -0.768893   -1.089451
N     -1.837947    2.737818    0.047986
N      5.702534    4.018610    0.638847
O     -0.505884    2.852945   -2.378420
O      2.095246   -3.980606   -0.451347
O      5.209130    5.142304    1.250314
O      6.839602    3.938206    0.166870
O     -3.592033   -1.577325   -0.115794
O     -0.101710   -4.770424   -0.638501
O      0.905061   -0.247188    0.223876
H     -3.519413    3.849730   -0.597769
H     -3.526111    2.148658   -1.126585
H     -3.828801    2.523269    0.568238
H     -5.575725   -2.242784   -0.264803
H     -4.404617   -3.384021    0.501998
H     -4.351577   -3.144328   -1.298586
H     -1.498274   -6.178495    0.063912
H     -0.406128   -6.651229   -1.291478
H     -1.825716   -5.537806   -1.564272
H      3.240933    3.791624    1.548320
H      1.764629    1.830203    1.392500
H     -2.116283    0.643392    2.404750
H     -0.414900    0.893906    1.868509
H     -0.748269    3.074435    1.755154
H     -2.548985    2.901150    2.047435
H      6.261854    1.677953   -0.477900
H      3.667238   -2.080887   -0.069086
H     -2.590406   -3.910178   -0.549216
H     -0.577222    0.828149   -2.487489
H     -2.140241    1.657170   -2.502862
H     -2.907654    0.538161    0.036900
H     -0.098444    1.748387   -0.156897
H     -0.787360    3.547712   -1.731217
