52

C     -4.472770   -1.826303   -0.054849
C      3.538857   -2.723533    0.363194
C      2.815395   -1.557151    0.336368
C     -0.910154   -1.043490    0.176807
C     -2.086697   -1.923154   -0.294276
C      4.887092   -1.902917   -1.352745
C     -1.526685    3.769370    0.012328
C      2.701550    1.886277   -0.941892
C     -3.334363   -0.396984    2.533836
C      4.604638   -2.925015   -0.491204
C      3.100848   -0.501369   -0.546966
C     -1.600119    0.082995    0.869424
C      4.152579   -0.701452   -1.391208
C     -2.994448   -0.251048    1.028742
C     -1.962610    2.529242    0.409700
C     -0.216588    3.975240   -0.453501
C      1.866560    2.983440   -0.910993
C      2.229288    0.677614   -0.535852
C     -1.188960    1.417208    0.390488
C      0.575218    2.851443   -0.474619
C      0.131260    1.585675   -0.068193
Cl     4.607896    0.469468   -2.596052
N      5.365018   -4.121475   -0.460741
N     -3.174964   -1.605859    0.520769
O     -3.223317    0.769045    3.230444
O     -3.285266    2.468770    0.843234
O      0.123666    5.243407   -0.826037
O      2.355158    4.059232   -1.292340
O      0.984014    0.600463   -0.127193
Cl     0.692656    0.000000    0.000000
H     -4.971004   -2.713188    0.429886
H     -5.174651   -0.987478    0.048233
H     -4.410568   -2.112702   -1.145191
H      3.292810   -3.528982    1.063207
H      1.999392   -1.385432    1.014257
H     -0.472208   -0.717495   -0.823732
H     -0.216290   -1.628791    0.771049
H     -2.261019   -1.834702   -1.381998
H     -1.770544   -2.984989   -0.074869
H      5.725887   -2.032920   -2.042074
H     -2.175651    4.642181    0.043136
H      3.724767    2.070654   -1.269207
H     -2.505889   -1.081104    2.898240
H     -4.260604   -0.962498    2.649429
H     -1.137967    0.036944    1.941040
H     -3.765479    0.365122    0.522346
H      6.152019   -4.272146    0.205262
H      5.141854   -4.886588   -1.125260
H     -4.071147    1.265107    3.354855
H     -3.861800    3.279172    0.864728
H      0.955996    5.580696   -1.164798
H     -0.692656    0.000000    0.000000
