62

C      6.121157    3.310388    0.298232
C      6.655902    1.956568   -0.179727
C      6.467895    0.986957    0.966322
C      4.993483    0.904522    1.301796
C      4.175800    0.428766    0.140685
C      4.592853   -0.941495   -0.319125
C      4.458822   -1.986286    0.736184
C      3.053636   -2.140743    1.248825
C      2.103800   -2.536762    0.127176
C      0.693632   -2.704101    0.651771
C     -0.208317   -3.103460   -0.467133
C     -2.908066   -1.322143   -1.255884
C     -0.220705   -2.061982   -1.544531
C     -4.251860   -0.940921   -1.106878
C     -7.452173    3.571607    0.903599
C     -6.450922    1.352537   -1.673291
C     -1.885626   -0.493896   -0.894818
C     -5.905323    0.691713   -0.429844
C     -7.261117    2.241085    0.212111
C     -3.526128    1.108236   -0.230642
N     -0.670314   -0.817318   -1.020618
N     -2.254436    0.715583   -0.385182
N     -4.524030    0.266612   -0.597154
O     -8.704121    4.067439    0.476512
O     -3.848696    2.355982    0.295660
O     -7.269677    2.363813   -1.166296
O     -5.967544    1.751282    0.490441
H      5.035673    3.297249    0.148392
H      6.326944    3.366067    1.382422
H      6.625528    4.136589   -0.245469
H      6.172461    1.629181   -1.113420
H      7.772912    2.045521   -0.315172
H      6.837051   -0.017009    0.694051
H      7.063070    1.369894    1.810459
H      4.812218    0.218891    2.146764
H      4.626469    1.906285    1.598958
H      4.240366    1.100403   -0.739687
H      3.120871    0.383534    0.449806
H      5.651215   -0.922474   -0.719252
H      3.976154   -1.219478   -1.189692
H      5.199923   -1.884478    1.553186
H      4.717839   -2.972319    0.247908
H      2.746873   -1.173978    1.707873
H      3.013829   -2.878925    2.083683
H      2.123403   -1.682386   -0.606162
H      2.438439   -3.493982   -0.310116
H      0.688810   -3.419783    1.497520
H      0.419371   -1.718487    1.101296
H     -1.237481   -3.331866   -0.142458
H      0.232543   -4.032950   -0.917875
H     -2.718899   -2.314423   -1.675063
H      0.775402   -1.979725   -2.055920
H     -0.902158   -2.418968   -2.370519
H     -5.060253   -1.594020   -1.391604
H     -6.649035    4.275862    0.683588
H     -7.555519    3.376526    1.987492
H     -7.042582    0.625564   -2.270391
H     -5.641982    1.761368   -2.309103
H     -6.536942   -0.121750   -0.051133
H     -7.990381    1.510348    0.572943
H     -9.430839    3.550023    0.869673
H     -3.859218    2.416385    1.308832
