42

C      5.511264   -0.393927    0.707111
C      4.712411    0.821210    1.148525
C      5.490102   -0.420198   -0.805574
C      3.547762    1.074555    0.214952
C      4.116834   -0.862365   -1.253134
C      0.401025    0.043104    0.460750
C     -0.949404    0.192489    0.809566
C     -6.329495   -1.026463   -0.256812
C     -3.486531   -0.295905    1.637670
C      3.032968   -0.224212   -0.382811
C      0.739600    0.183244   -0.854644
C     -3.262283    0.592794    0.407949
C     -5.303797   -0.098705    0.356937
C     -1.552567    0.594882   -1.355652
N      1.938161    0.063328   -1.251310
N     -0.274256    0.460397   -1.733706
N     -1.905228    0.462173   -0.077216
O     -6.771503   -0.555717   -1.491218
O     -2.558534    0.876646   -2.274652
O     -4.852474   -0.542835    1.576507
O     -4.194532    0.073032   -0.470860
H      6.523877   -0.329747    1.122544
H      5.016448   -1.330069    1.092541
H      5.400958    1.696551    1.098185
H      4.404752    0.713354    2.200702
H      6.240283   -1.127598   -1.224602
H      5.647452    0.623942   -1.152377
H      3.826741    1.802059   -0.576818
H      2.727970    1.517516    0.803026
H      4.000754   -0.583909   -2.319794
H      3.994770   -1.958764   -1.153610
H      1.129297   -0.178185    1.245595
H     -1.172915    0.073585    1.860671
H     -7.217583   -0.995479    0.428564
H     -5.974931   -2.055355   -0.312333
H     -3.166672    0.195009    2.558833
H     -2.895939   -1.224669    1.452537
H      2.781898   -0.899091    0.459162
H     -3.522962    1.645140    0.614546
H     -5.775059    0.915040    0.455067
H     -7.557575    0.022997   -1.414409
H     -2.461086    0.460147   -3.191255
