42

C     -5.582161   -0.079737    0.361326
C     -5.109571   -0.354379   -1.056348
C     -4.408945   -0.149554    1.331582
C     -3.630459   -0.084011   -1.196642
C     -3.539910    1.047090    1.067139
C     -0.689864   -0.287962    0.416129
C      0.565719   -0.837837    0.712225
C      6.080183    0.708102    0.366039
C      3.587626   -1.634621   -0.554187
C     -3.193032    1.111793   -0.380210
C     -0.750710    0.843384   -0.347934
C      2.982492   -0.888806    0.598412
C      5.132273   -0.455815    0.495278
C      1.614761    0.825443   -0.480981
N     -1.841795    1.385950   -0.649191
N      0.442501    1.362162   -0.773260
N      1.705161   -0.286430    0.268053
O      7.232895    0.283116   -0.274122
O      2.829336    1.364548   -0.921415
O      4.798967   -0.957110   -0.761492
O      3.920335    0.062593    1.006709
H     -6.367095   -0.764341    0.695927
H     -5.968010    0.960177    0.375037
H     -5.702474    0.187673   -1.818546
H     -5.263990   -1.437172   -1.236819
H     -3.881214   -1.106486    1.190672
H     -4.858971   -0.131517    2.348267
H     -3.075088   -1.002400   -0.964622
H     -3.438405    0.169044   -2.256881
H     -4.135950    1.947960    1.402170
H     -2.631875    1.093123    1.705217
H     -1.558226   -0.803329    0.819192
H      0.571357   -1.746859    1.328799
H      6.300868    1.085552    1.389977
H      5.549243    1.501219   -0.193750
H      3.837304   -2.684378   -0.250854
H      2.964572   -1.654617   -1.454314
H     -3.784009    2.017588   -0.782333
H      2.834887   -1.584345    1.443360
H      5.464882   -1.221980    1.201753
H      7.955976    0.907919   -0.005554
H      3.040414    1.289252   -1.921559
