48

C     -4.869920    0.004519    0.919006
C     -4.161184    2.329014    0.470020
C     -4.747713    0.814952   -1.382165
C      4.162120    2.245153    1.405539
C      3.262979    2.209675   -1.473454
C      5.428239    0.325665   -0.536258
C      0.405905   -4.631098   -0.421930
C     -0.749432   -3.918524   -0.204743
C      1.576242   -3.924090   -0.640256
C     -0.720908   -2.560132   -0.208367
C      1.584768   -2.543161   -0.640220
C      0.441145   -1.812693   -0.424970
C      0.367249   -0.337942   -0.417772
C      1.414401    0.395576    0.388157
C      0.598994   -0.096876    1.523352
C     -1.845675    0.453833    0.886851
C     -4.093818    0.912556   -0.006276
N     -0.524018    0.070369    0.681812
O      0.676263   -0.501135    2.698348
O     -2.261341    0.742074    2.027335
O     -2.758518    0.534218   -0.155424
O      2.692862   -0.082222    0.316009
Si     3.811789    1.140880   -0.068957
H     -4.855589   -1.026110    0.545261
H     -4.528415    0.102581    1.975007
H     -5.925099    0.386995    0.916746
H     -3.437238    2.940683   -0.140226
H     -3.845849    2.394545    1.527497
H     -5.169004    2.775943    0.366584
H     -3.992295    0.840193   -2.195584
H     -5.477054    1.636819   -1.540623
H     -5.320853   -0.137112   -1.455483
H      4.907533    2.996470    1.066849
H      4.649924    1.674056    2.227574
H      3.269517    2.799884    1.723745
H      2.724002    3.126401   -1.101699
H      4.117602    2.604513   -2.074319
H      2.513926    1.690514   -2.128681
H      6.297414    0.931367   -0.149588
H      5.503327    0.293795   -1.630668
H      5.454255   -0.701033   -0.154605
H      0.349582   -5.707213   -0.412650
H     -1.679580   -4.439762   -0.031253
H      2.470316   -4.518308   -0.808413
H     -1.638220   -1.999148   -0.035928
H      2.532707   -2.061455   -0.822365
H      0.099538    0.138891   -1.378740
H      1.289125    1.485881    0.190415
