39

C     -5.551497    0.521924   -0.104447
C     -5.023972    0.813162    1.295694
C     -4.674020   -0.649504   -0.493704
C     -3.528353    0.752040    1.065428
C     -0.562866    0.069044    0.079715
C      0.810819    0.142505    0.191122
C      4.765584    2.089519    0.362726
C      3.648734   -0.792909   -0.796835
C     -3.300265   -0.116007   -0.136711
C     -1.160269   -1.165369    0.208175
C      2.949941   -0.897068    0.534366
C      4.574350    0.619872    0.669971
C      0.936325   -2.198753    0.546737
N     -2.442329   -1.225949    0.102975
N     -0.404300   -2.254219    0.435627
N      1.519748   -0.993112    0.421268
O      6.067274    2.306737   -0.081424
O      1.705876   -3.338541    0.782882
O      4.804089   -0.098987   -0.481208
O      3.313284    0.331543    1.125752
H     -5.298732    1.372096   -0.741766
H     -6.628832    0.266613   -0.098037
H     -5.360209    1.798296    1.664795
H     -5.373491    0.052334    2.025837
H     -4.965437   -1.497166    0.169032
H     -4.758697   -0.895368   -1.569324
H     -3.080841    0.346019    1.997966
H     -3.207099    1.816780    0.879698
H     -1.192445    0.927669   -0.102618
H      1.310673    1.104774    0.094020
H      4.091236    2.409051   -0.457747
H      4.521307    2.730110    1.234555
H      3.957516   -1.788059   -1.176051
H      3.015304   -0.228943   -1.503630
H     -2.977900    0.505833   -1.008391
H      3.385460   -1.678810    1.183215
H      5.294809    0.331089    1.466198
H      6.691809    2.338127    0.698322
H      2.127417   -3.826377    0.000301
