45

C      4.592497   -1.951438   -1.343375
C     -4.128373   -1.989759   -0.535917
C     -5.661379   -0.091010   -0.477275
C     -4.761834   -1.003005    1.599882
C      3.583322    1.300879    1.158991
C      4.844396    0.741638    1.233577
C     -1.209765    2.211902   -0.174239
C     -0.238308    2.317607   -1.326079
C      2.957803   -0.225185   -0.525398
C      0.250121    0.566373    0.954249
C      4.205208   -0.813845   -0.484027
C      2.613208    0.836486    0.284423
C      5.139051   -0.324267    0.396701
C      1.262530    1.453455    0.220902
C     -2.106591   -0.000781    0.523492
C     -4.417041   -0.692837    0.159957
N      6.430238   -0.891045    0.478376
N     -1.042803    0.919305    0.431361
O     -1.941751   -1.141003    1.062729
O      0.923894    1.624152   -1.099236
O     -3.386052    0.252266    0.047622
H      4.738643   -2.827590   -0.671653
H      3.769111   -2.216387   -2.033961
H      5.493954   -1.729923   -1.950595
H     -3.654588   -2.731828    0.140562
H     -3.537962   -1.846396   -1.478907
H     -5.115019   -2.434084   -0.820006
H     -6.577486   -0.405993    0.102868
H     -5.762403   -0.401104   -1.538396
H     -5.660187    1.008669   -0.453398
H     -4.086349   -1.760263    2.041905
H     -5.800089   -1.402132    1.601629
H     -4.796771   -0.065763    2.204292
H      3.323363    2.131111    1.796675
H      5.538045    1.159029    1.936845
H     -1.095646    3.045522    0.548215
H     -2.249154    2.277082   -0.587539
H     -0.742711    1.828467   -2.209986
H     -0.071382    3.369820   -1.636887
H      2.244781   -0.637909   -1.233398
H      0.538993   -0.486148    0.678875
H      0.368660    0.758768    2.022412
H      1.332508    2.448407    0.701762
H      6.611764   -1.913444    0.518506
H      7.281554   -0.267798    0.501917
