27

C     -5.177962   -0.317657    0.710704
C      2.635580   -0.082962   -1.352057
C      4.014305   -0.041164   -1.268615
C      2.410006   -0.195058    0.984777
C     -0.571551    0.847693   -0.010480
C      1.796249   -0.159436   -0.259016
C      3.794061   -0.154145    1.106948
C      4.606953   -0.077608   -0.008646
C     -1.778045    0.552152   -0.872342
C     -3.060360    0.613590   -0.147767
C     -0.456633   -1.271121   -0.817673
F      4.376781   -0.188948    2.321516
I      6.712232   -0.002401    0.114133
N      0.381866   -0.215852   -0.359822
O     -3.448130    1.697270    0.420757
O     -0.127134   -2.504789   -0.708970
O     -3.941651   -0.465949   -0.014046
O     -1.631777   -0.767665   -1.370600
H     -5.981705   -0.445223   -0.050450
H     -5.234429   -1.155997    1.411361
H     -5.246304    0.667137    1.175225
H      2.161521   -0.059717   -2.327465
H      4.660158    0.021818   -2.136600
H      1.759854   -0.259550    1.851504
H     -0.799958    0.859633    1.056261
H     -0.092769    1.811509   -0.320154
H     -1.761156    1.294440   -1.721996
