27

C      4.110489    0.664573    1.481788
C     -2.035793   -0.992976    0.576800
C     -3.155387   -0.793190    1.346152
C     -2.213467    1.158101   -0.427231
C      0.760540    0.483369   -1.308670
C     -1.538994   -0.052138   -0.311493
C     -3.345446    1.349420    0.357687
C     -3.818186    0.408611    1.226763
C      1.897876   -0.504117   -1.387785
C      2.657112   -0.543786   -0.129475
C     -0.086306   -1.586362   -1.732813
F     -3.950255    2.565469    0.182105
I     -5.545568    0.877372    2.340213
N     -0.380442   -0.353348   -1.050482
O      2.704941   -1.573174    0.583677
O     -0.868740   -2.396772   -2.274822
O      3.353371    0.581752    0.305601
O      1.305154   -1.747982   -1.689967
H      3.883033   -0.190188    2.164712
H      5.217392    0.648740    1.263527
H      3.873414    1.629453    1.988363
H     -1.509981   -1.942208    0.666859
H     -3.536061   -1.528417    2.031164
H     -1.822509    1.879092   -1.120939
H      0.619461    0.945028   -2.309826
H      0.894935    1.232655   -0.535048
H      2.529420   -0.218976   -2.236857
