40

C      4.281411    0.098339    1.101025
C      3.526399    2.374741    0.639433
C      4.278251    0.953175   -1.192926
C     -4.171015    1.859393    0.766963
C     -3.029107    1.148979    0.396974
C      0.093692   -2.381872   -1.083559
C     -1.111360   -2.398884   -1.988428
C     -5.510660   -0.025831    0.322101
C     -0.657201   -0.147903   -0.314045
C     -5.425197    1.286801    0.735961
C     -3.119487   -0.163823   -0.016335
C     -4.375281   -0.729918   -0.045036
C     -1.934365   -0.953705   -0.417308
C      1.789312   -0.685615   -0.470548
C      3.532017    0.951117    0.122292
Br    -6.987944    2.275315    1.247573
F     -4.480303   -2.027070   -0.451497
N      0.432362   -1.062837   -0.619289
O      2.677536   -1.525537   -0.752166
O     -2.021646   -1.409713   -1.728934
O      2.185598    0.555362   -0.032795
H      4.204999    0.572639    2.108961
H      5.332409    0.031055    0.780517
H      3.871369   -0.934052    1.178100
H      3.324500    2.320564    1.729880
H      4.511341    2.850055    0.453637
H      2.689276    2.935833    0.160902
H      3.558104    0.972900   -2.037232
H      4.821989   -0.022129   -1.292145
H      4.975360    1.812069   -1.244694
H     -4.107151    2.892187    1.092999
H     -2.066740    1.630625    0.434423
H      0.921381   -2.877161   -1.641246
H     -0.088013   -3.054177   -0.194367
H     -0.845240   -2.352972   -3.066649
H     -1.621072   -3.376836   -1.844912
H     -6.498887   -0.467819    0.300635
H     -0.629092    0.628170   -1.123672
H     -0.534431    0.307831    0.689595
H     -1.793113   -1.859300    0.224557
