42

C     -4.353660    1.862613    0.603206
C     -3.919444    1.139363   -1.761969
C     -5.404500   -0.142496   -0.288075
C      3.452495    0.439632   -0.875832
C      4.749573    0.887209   -0.864640
C     -0.918366   -1.842134    1.001212
C      0.145923   -2.697591    0.360200
C      3.739591   -0.772525    1.125732
C      0.599320    0.061739    0.857924
C      2.918503   -0.383483    0.093546
C      5.046039   -0.343679    1.170495
C      5.561627    0.484614    0.183373
C      1.507478   -0.839106    0.033683
C     -1.785341    0.333969    0.273157
C     -4.138525    0.712060   -0.330794
F      5.861461   -0.716624    2.175121
N      6.908092    0.947598    0.197462
N     -0.719827   -0.461655    0.701661
O     -1.632871    1.566458    0.000211
O      1.377072   -2.154942    0.299985
O     -3.078534   -0.148638    0.112668
H     -3.635111    2.691333    0.446399
H     -4.251096    1.521878    1.634318
H     -5.368101    2.277859    0.401682
H     -3.018611    0.644079   -2.210242
H     -4.789186    0.872549   -2.417944
H     -3.734031    2.242765   -1.851383
H     -5.758588   -0.149453    0.763210
H     -6.187962    0.306633   -0.920833
H     -5.127637   -1.167772   -0.557513
H      2.789050    0.736618   -1.683362
H      5.095728    1.529365   -1.658545
H     -0.837468   -1.946725    2.122745
H     -1.940495   -2.184017    0.757300
H     -0.211256   -2.872120   -0.697988
H      0.108128   -3.699099    0.835905
H      3.335245   -1.422090    1.899856
H      0.932261    0.031098    1.936679
H      0.680274    1.099998    0.489534
H      1.171980   -0.670501   -1.033596
H      7.155472    1.934169   -0.027965
H      7.675298    0.291050    0.438273
