42

C     -4.701448    0.328268   -1.160105
C     -3.432589    2.374775   -0.975288
C     -4.182002    1.276603    1.058438
C      3.434155   -0.505966   -0.881880
C      4.578543    0.261570   -1.113851
C     -0.689301   -2.823606    0.612336
C      0.725073   -3.187259    0.957539
C      3.089229    0.628872    1.152269
C      0.304373   -0.704486   -0.374709
C      2.679079   -0.328870    0.253911
C      4.227242    1.399739    0.932525
C      4.971833    1.217117   -0.198977
C      1.479705   -1.123242    0.511492
C     -2.131144   -0.901794    0.116089
C     -3.653374    0.983974   -0.352516
Cl     4.726460    2.612127    2.093033
N      6.127160    2.019281   -0.393898
N     -0.840678   -1.484499    0.121278
O     -3.110364   -1.560955    0.537163
O      1.675871   -2.491270    0.247454
O     -2.409075    0.372646   -0.328414
H     -4.545666   -0.736493   -1.383017
H     -5.676955    0.413375   -0.637299
H     -4.868170    0.823643   -2.159682
H     -3.685486    2.339381   -2.061970
H     -2.375685    2.692485   -0.840027
H     -4.130868    3.109217   -0.525139
H     -5.228403    1.571191    1.021805
H     -3.966376    0.419478    1.724878
H     -3.525016    2.114177    1.433134
H      3.186089   -1.234835   -1.640315
H      5.186943    0.142345   -1.995246
H     -1.130110   -3.515743   -0.153520
H     -1.327322   -2.967666    1.525455
H      0.820572   -4.285382    0.849354
H      0.902173   -2.971002    2.044863
H      2.540877    0.817809    2.063850
H      0.558459   -1.049083   -1.411730
H      0.133485    0.369574   -0.307894
H      1.124558   -1.061823    1.560620
H      7.067006    1.689194   -0.093823
H      6.071149    2.957132   -0.840348
