53

C     -3.065278    2.325336    1.638289
C     -3.483493    2.449736   -0.849030
C      7.348146   -0.625589   -0.763502
C      6.691143   -0.094181   -1.760020
C      6.796384   -0.691336    0.599462
C      5.379318    0.458266   -1.563343
C      5.446133   -0.120537    0.798733
C     -4.016709   -2.351403   -1.454473
C      1.303701   -1.847184   -0.011270
C     -0.669849    2.084516    0.012878
C     -3.396857    1.591822    0.382150
C      4.817111    0.440547   -0.383390
C     -3.836616   -1.220612   -0.484671
C      1.111652    0.805537   -0.089303
C     -3.166999   -1.776458    0.774751
C     -2.682486   -0.503099    1.406915
C      2.349492    0.219907   -0.171134
C     -0.034402    0.047153    0.032525
C     -2.476440    0.401779    0.222087
N      2.431877   -1.114556   -0.130701
N      0.087818   -1.283652    0.069524
N      0.675579    2.088871   -0.098712
N      3.496030    1.021971   -0.294556
N     -1.124341    0.842550    0.094593
O     -4.472980   -1.863515   -2.685633
O     -4.100080   -2.435172    1.575485
O     -3.707740   -0.060755    2.238616
O     -2.927294   -0.278139   -0.910127
H     -3.866414    2.223860    2.432621
H     -2.130217    1.977131    2.124044
H     -3.047356    3.447529    1.474054
H     -4.468773    2.303026   -1.385916
H     -2.730084    2.187409   -1.631495
H     -3.484040    3.514432   -0.563768
H      8.348100   -1.049609   -0.899957
H      7.165273   -0.084242   -2.732175
H      6.781064   -1.792285    0.869960
H      7.536723   -0.208575    1.297988
H      4.861140    0.896416   -2.432526
H      4.798955   -0.900904    1.294189
H      5.556659    0.714265    1.576317
H     -4.785784   -3.037087   -1.082338
H     -3.095898   -2.912592   -1.650191
H      1.453370   -2.928533    0.014615
H     -1.229206    3.008046    0.026293
H     -4.440388    1.174597    0.535479
H     -4.813151   -0.809714   -0.206430
H     -2.398526   -2.476142    0.457168
H     -1.766937   -0.630777    2.014868
H      3.406435    2.053162   -0.323696
H     -3.824668   -1.236278   -3.090153
H     -4.036175   -3.409642    1.396807
H     -4.562920   -0.535298    2.089029
