42

C      3.957182    1.433676    1.483450
C      4.323329    0.641305   -0.787019
C      2.636739    2.341717   -0.350074
C     -1.991017    0.187969   -1.024539
C     -2.784326    1.312091   -0.772094
C      0.441666   -2.022711    1.118567
C     -1.028033   -2.117677    1.455334
C     -3.594944   -1.071665    0.165969
C     -0.260028   -2.048513   -1.260219
C     -2.390866   -1.035013   -0.552775
C     -4.371846    0.016810    0.415600
C     -3.963021    1.242162   -0.061964
C     -1.639766   -2.308949   -0.753583
C      1.496499   -0.486765   -0.503833
C      3.238080    1.081110    0.173561
F     -5.531864   -0.025265    1.109343
N     -4.706071    2.442115    0.146179
N      0.569587   -1.507147   -0.215107
O      1.646399   -0.001639   -1.668460
O     -1.629752   -2.932140    0.498267
O      2.327244    0.074938    0.469547
H      4.804234    2.099609    1.301838
H      3.197168    1.885826    2.149128
H      4.240929    0.456047    1.932506
H      3.951664    0.369015   -1.776599
H      4.983829    1.544962   -0.938122
H      4.995387   -0.130132   -0.333254
H      2.590809    2.375346   -1.465815
H      1.643522    2.525772    0.110018
H      3.294537    3.186940   -0.049471
H     -1.078662    0.278897   -1.580504
H     -2.430671    2.268146   -1.165192
H      0.818052   -3.080380    1.101103
H      0.997127   -1.417735    1.868975
H     -1.175079   -2.627206    2.436011
H     -1.493987   -1.133359    1.446833
H     -3.912945   -2.051479    0.542574
H     -0.279893   -1.432854   -2.172864
H      0.183643   -3.069845   -1.495220
H     -2.161266   -2.977031   -1.441878
H     -5.600782    2.563966   -0.364917
H     -4.312811    3.149084    0.808700
