73

C      3.963811   -2.520086    0.240907
C      6.217850   -2.479938    1.174414
C     -5.871295    1.846779    2.150914
C     -4.679482   -0.189677    2.739381
C      6.841716    2.900864   -0.733129
C     -5.592617   -0.678185   -3.079137
C      0.021740    0.127602   -2.397875
C      0.890022   -0.863121   -1.708493
C     -0.856605    0.958580   -1.538057
C      5.841494    1.750836    1.201316
C     -6.970358   -0.619875   -1.003969
C      6.395841    0.420285    0.738887
C     -6.493163   -0.381145    0.409971
C      4.661383    1.689599   -0.916483
C     -4.722968   -1.706631   -0.984422
C      5.013441   -1.652056    0.883462
C     -4.774082    0.882168    1.699770
C      5.534913    2.538213   -0.055209
C     -5.949161   -1.395240   -1.801988
C      5.325621   -0.421622    0.067839
C     -5.175722    0.344364    0.340710
C      4.127224    0.447337   -0.200316
C     -4.154553   -0.549196   -0.256585
C      1.860842   -0.249347   -0.768673
C     -1.849839    0.234612   -0.741898
O      1.535884    0.198076    0.356553
O     -1.469730   -0.368785    0.291504
O      3.222974   -0.139754   -1.108162
O     -3.190405    0.155218   -1.031858
H      2.973610   -2.437442    0.739482
H      4.287008   -3.602769    0.309158
H      3.852009   -2.348143   -0.850429
H      6.906502   -2.072126    1.928102
H      5.859090   -3.457741    1.600470
H      6.710479   -2.739393    0.214789
H     -6.325860    2.373775    1.302468
H     -5.446764    2.616016    2.840172
H     -6.637763    1.312152    2.748792
H     -5.631903   -0.764684    2.852086
H     -4.559314    0.339928    3.727846
H     -3.803648   -0.859099    2.611259
H      6.820150    3.918345   -1.173579
H      7.704077    2.888310   -0.018744
H      7.053240    2.186120   -1.571173
H     -4.492879   -0.664376   -3.247454
H     -6.010101    0.363581   -3.085657
H     -6.022042   -1.173442   -3.984255
H     -0.594867   -0.354569   -3.181868
H      0.708741    0.843786   -2.938775
H      1.428009   -1.473385   -2.461807
H      0.258144   -1.547831   -1.107046
H     -0.249857    1.654494   -0.902071
H     -1.421290    1.649391   -2.233236
H      6.633359    2.273003    1.783856
H      4.974660    1.673388    1.857753
H     -7.960482   -1.106583   -0.984354
H     -7.090700    0.368025   -1.483776
H      7.236992    0.644510    0.046393
H      6.834256   -0.059178    1.626928
H     -7.219931    0.232263    0.963052
H     -6.361968   -1.349704    0.930515
H      3.796645    2.278330   -1.294024
H      5.200278    1.317077   -1.811364
H     -4.943635   -2.540672   -0.278749
H     -3.948942   -2.098115   -1.687876
H      4.571695   -1.335782    1.874399
H     -3.837022    1.436566    1.666995
H      5.040781    3.475735    0.235637
H     -6.416411   -2.362244   -2.062553
H      5.730165   -0.748491   -0.909250
H     -5.335743    1.215713   -0.333192
H      3.572766    0.736316    0.714234
H     -3.546308   -0.980926    0.595685
