50

C     -5.900773    0.709787    0.095572
C     -4.941321    2.779634   -0.691435
C      7.849093    0.284491   -0.531314
C     -2.938997   -2.872190    1.914973
C     -1.854344   -3.562295    2.356393
C     -2.751989   -1.656008    1.256634
C      3.359051   -0.870559   -1.782669
C      3.819750    0.068854    0.345751
C      4.701808   -0.813275   -2.109705
C      5.150078    0.121880    0.012186
C     -3.706019    1.386588    0.847379
C     -2.926315    0.568188   -0.137418
C      2.911326   -0.425038   -0.541637
C      5.616845   -0.309847   -1.201767
C     -0.589462   -3.062234    2.153599
C     -1.509274   -1.105907    1.024864
C      0.912686    0.889106   -0.100514
C      1.479469   -0.479952   -0.167310
C     -0.446802   -1.847838    1.493760
C     -0.523746    0.999043    0.080900
Cl     0.856947   -3.896866    2.696415
N     -4.966988    1.762140    0.302608
N     -1.631311    0.140883    0.332128
O      1.538063    1.592118    0.926769
O     -0.907012    2.223926   -0.012412
O      6.956783   -0.237167   -1.490644
S      1.291174   -1.407282    1.352583
H     -5.905712    0.344674   -0.962831
H     -6.931251    1.142645    0.241326
H     -5.764950   -0.085453    0.823259
H     -5.172999    2.432813   -1.723960
H     -3.943694    3.254396   -0.697616
H     -5.662535    3.622143   -0.473917
H      7.497801    1.279557   -0.223067
H      8.897945    0.305497   -0.907175
H      7.765895   -0.380618    0.366896
H     -3.918448   -3.255502    2.069629
H     -1.918282   -4.522307    2.880532
H     -3.609954   -1.142664    0.927032
H      2.635093   -1.261261   -2.483586
H      3.499597    0.425540    1.332841
H      5.079841   -1.154334   -3.071989
H      5.861341    0.514737    0.721371
H     -3.788651    1.010203    1.859611
H     -3.135640    2.361807    0.978749
H     -3.489140   -0.145857   -0.749089
H     -2.703811    1.335043   -0.957769
H      1.176579    1.427555   -1.042830
H      0.925975   -1.016059   -0.995437
H      1.756281    2.527265    0.662390
