35

C     -2.661418    1.078932   -0.248095
C     -1.865892    1.403532    0.960705
C      2.487119    2.202675   -0.939949
C     -1.865266    0.526342   -1.394169
C      1.184754    1.921094   -0.614588
C     -0.811287    0.436914    1.334501
C      3.206768    1.065575   -0.764174
C      2.674266   -1.258136   -0.027626
C      1.731604   -1.707064    1.068455
C     -1.843665   -1.655709   -0.181708
C     -1.005550   -0.578933   -0.885330
C      1.117006    0.584346   -0.233949
C     -0.747422   -2.369804    0.567517
C     -0.067024   -0.185698    0.207123
N      2.361039    0.112818   -0.341187
N      0.368484   -1.513974    0.656979
O     -0.840851   -3.548760    1.031004
H     -3.117749    2.044557   -0.618943
H     -3.561684    0.437172   -0.019032
H     -1.448399    2.440861    0.861521
H     -2.585780    1.476874    1.828423
H      2.885323    3.149184   -1.276094
H     -2.563195    0.099479   -2.143070
H     -1.235637    1.309963   -1.813459
H      0.394806    2.645953   -0.663608
H     -1.257767   -0.334330    2.027373
H     -0.060374    0.978221    1.981975
H      4.288829    0.970809   -0.944067
H      2.580381   -1.921653   -0.929562
H      3.718334   -1.390890    0.320739
H      1.977001   -2.744489    1.299852
H      1.938211   -1.054795    1.947974
H     -2.509056   -1.230832    0.573384
H     -2.350044   -2.304694   -0.894096
H     -0.515866   -1.085538   -1.734819
