35

C     -2.575316    2.517861    1.393189
C     -2.785791    1.612909    0.375462
C     -1.528180    2.354053    2.270909
C     -0.757190   -2.860774   -0.051661
C      0.673987   -3.278413   -0.416808
C     -1.904542    0.544245    0.279202
C     -0.678140    1.278700    2.138136
C     -0.659994   -2.071454    1.218409
C      1.465811   -2.041579   -0.654749
C      2.436572    2.468608   -1.520463
C     -0.859950    0.366785    1.142239
C      0.060999   -0.778825    1.016494
C      0.744187   -0.774459   -0.329052
C      1.473148    1.328997   -1.400878
O      2.032940    3.325006   -2.525820
O      0.461046    1.237275   -2.149330
O      1.631145    0.319171   -0.474299
H     -3.267025    3.345863    1.459001
H     -3.587782    1.706184   -0.325952
H     -1.403059    3.094199    3.056996
H     -1.134222   -2.300918   -0.924214
H     -1.398348   -3.764752    0.063391
H      0.632545   -3.967483   -1.264269
H      1.094496   -3.794432    0.470347
H     -2.078949   -0.146883   -0.512169
H      0.132394    1.157784    2.822822
H     -0.066902   -2.694862    1.951272
H     -1.642834   -1.948758    1.726082
H      2.458986   -2.059509   -0.152842
H      1.699875   -2.003568   -1.754244
H      3.438602    2.044318   -1.723085
H      2.469644    2.994270   -0.550346
H      0.842054   -0.693974    1.823811
H     -0.042177   -0.613259   -1.093923
H      2.621968    4.097677   -2.589715
