59

C     -4.030320   -3.658878   -0.870755
C      6.923320   -3.201340   -1.011893
C     -2.562815   -3.302895   -0.855428
C     -2.201701   -2.408105    0.297726
C     -0.425576    3.647486    1.833052
C     -1.097435    4.044048   -0.386929
C      0.005685    4.957238    1.937792
C     -0.673260    5.341075   -0.291341
C      4.489262   -1.906775   -1.497545
C      4.225790   -1.572609    0.867790
C      3.288210   -1.267461   -1.730751
C      3.037462   -0.940382    0.633139
C     -2.927772    1.729276    0.327147
C     -2.930100   -1.109919    0.298103
C     -3.410504    0.933448   -0.852558
C     -1.353876   -0.074460   -1.220528
C      0.581387    0.370036    0.194373
C     -0.987780    3.148276    0.676794
C     -0.653324    0.992731   -0.476915
C     -0.110699    5.818250    0.884518
C      4.930803   -2.045113   -0.206904
C      2.571501   -0.788984   -0.661480
C     -1.462993    1.740916    0.531012
F      0.279109    7.105277    0.892097
N     -2.711326   -0.310298   -0.854625
O      6.143086   -2.689306    0.042134
O      1.372716   -0.148026   -0.858743
Cl     0.686181    0.000000    0.000000
H     -4.371308   -4.062564    0.089765
H     -4.138704   -4.495200   -1.620989
H     -4.666168   -2.817085   -1.215331
H      7.771824   -3.776725   -0.558420
H      7.298309   -2.378940   -1.654267
H      6.337535   -3.913131   -1.646029
H     -2.004297   -4.259161   -0.720956
H     -2.313132   -2.854296   -1.835535
H     -2.528556   -2.961495    1.226783
H     -1.107269   -2.335137    0.385509
H     -0.318750    2.978877    2.697154
H     -1.533765    3.665826   -1.292080
H      0.449253    5.348496    2.852259
H     -0.786555    5.985260   -1.152932
H      5.088600   -2.300416   -2.310969
H      4.583248   -1.687872    1.871682
H      2.957634   -1.168886   -2.759439
H      2.484184   -0.568822    1.485782
H     -3.479457    1.316179    1.223312
H     -3.325122    2.784588    0.251254
H     -4.031516   -1.363929    0.312620
H     -2.753704   -0.589552    1.260101
H     -4.495899    0.757104   -0.710199
H     -3.241644    1.436444   -1.822550
H     -1.360778    0.158713   -2.328420
H     -0.816858   -1.057349   -1.170144
H      1.181872    1.175441    0.674606
H      0.297226   -0.417168    0.911157
H     -0.233674    1.736310   -1.187867
H     -1.251377    1.260982    1.529652
H     -0.686181    0.000000    0.000000
