47

C      7.502847   -0.170338   -0.366757
C     -3.718513    1.535232    0.690263
C     -3.421792    1.754329   -1.634332
C     -4.439901    2.725089    0.704741
C     -4.145939    2.948491   -1.618996
C      4.829978   -0.095712    0.461153
C      4.108895   -0.433143   -1.759023
C      3.500163   -0.055890    0.891410
C      2.787105   -0.393640   -1.331900
C     -3.303489   -1.407130   -0.071799
C     -2.429586   -2.633111   -0.215266
C     -1.257468   -1.297635    1.406141
C      0.057271   -0.307726   -0.420348
C     -3.200420    1.035168   -0.480183
C     -1.233256   -0.213203    0.379442
C     -4.665958    3.450781   -0.445392
C      5.146255   -0.284263   -0.864971
C      2.467584   -0.205581   -0.008775
C     -2.433463   -0.223020   -0.517960
F     -5.372220    4.617016   -0.435541
N     -1.452096   -2.614137    0.850412
O      6.457018   -0.327694   -1.317671
O      1.167429   -0.161770    0.445243
Cl     0.685134    0.000000    0.000000
H      8.487456   -0.258179   -0.886996
H      7.471344    0.850256    0.095037
H      7.417559   -0.901301    0.470475
H     -3.557474    0.984206    1.621007
H     -3.024638    1.384142   -2.574513
H     -4.832102    3.085485    1.650177
H     -4.320233    3.518115   -2.538813
H      5.622319    0.024306    1.187089
H      4.351923   -0.581826   -2.803943
H      3.248185    0.091118    1.926006
H      1.988836   -0.512158   -2.046883
H     -3.557970   -1.270310    0.998196
H     -4.228727   -1.466751   -0.673579
H     -1.883227   -2.543106   -1.176810
H     -3.023360   -3.569934   -0.243438
H     -0.233627   -1.313381    1.883860
H     -1.959319   -1.077569    2.250352
H      0.103253    0.520780   -1.155686
H      0.149444   -1.293462   -0.919254
H     -1.206975    0.759027    0.919174
H     -2.096731   -0.470408   -1.532053
H     -1.866377   -3.201163    1.634856
H     -0.685134    0.000000    0.000000
