47

C     -6.008291    2.242414    0.691515
C      3.716898    0.841003    0.083912
C      2.250026    1.930499   -1.464879
C      4.257468    2.072827    0.377137
C      2.800920    3.139525   -1.158435
C     -4.487667   -1.086474    1.169557
C     -3.725887    0.817903   -0.024699
C     -3.357773   -1.757173    0.801873
C     -2.581371    0.120344   -0.390333
C      2.857529   -1.713318   -1.195490
C      2.750332   -2.582322    0.009038
C      1.131805   -1.073237    0.965494
C     -0.146563   -1.657762   -1.023147
C      2.700606    0.755895   -0.845965
C      0.732136   -0.580372   -0.419893
C      3.815944    3.232286   -0.230459
C     -4.678126    0.207252    0.757641
C     -2.360414   -1.164568    0.001819
C      2.039163   -0.499236   -1.222486
F      4.345626    4.452490    0.054498
N      1.577241   -2.421953    0.786928
O     -5.805933    0.900384    1.115562
O     -1.287408   -1.925709   -0.300336
Cl     0.685740    0.000000    0.000000
H     -5.889001    2.299016   -0.405359
H     -5.234868    2.911112    1.150240
H     -7.013560    2.545514    1.018580
H      4.053606   -0.065141    0.539429
H      1.449105    1.879675   -2.201000
H      5.051850    2.167286    1.099800
H      2.453517    4.056076   -1.637271
H     -5.256892   -1.531795    1.781908
H     -3.852220    1.835337   -0.361969
H     -3.238158   -2.772785    1.142031
H     -1.877298    0.641022   -1.018725
H      3.940860   -1.420413   -1.329370
H      2.642982   -2.350560   -2.098231
H      2.820738   -3.669626   -0.279273
H      3.635531   -2.423636    0.680628
H      1.885995   -0.390025    1.386284
H      0.207890   -1.079778    1.591252
H     -0.358538   -1.378216   -2.094217
H      0.466326   -2.601495   -1.093723
H      0.287886    0.399998   -0.405310
H      1.642663   -0.339184   -2.277818
H      1.645328   -2.963082    1.652428
H     -0.685740    0.000000    0.000000
