59

C     -3.910573    3.900799   -0.781196
C      7.335496    1.873528    0.084895
C     -3.728694    3.867577    0.731370
C     -2.856611    2.651413    1.042759
C      0.165500   -4.123865    0.541887
C     -1.289519   -3.546136   -1.205739
C      0.509138   -5.307752   -0.080422
C     -0.964611   -4.722040   -1.850000
C      4.112205    2.558521   -1.551511
C      4.722260    0.977297    0.090890
C      2.809528    2.110231   -1.547122
C      3.415973    0.524279    0.098495
C     -2.481189   -2.043232    1.147020
C     -3.586125    1.399190    0.537455
C     -3.304945   -0.980299    0.423359
C     -1.409786    0.490106    0.325924
C      0.827587   -0.454118    0.187734
C     -0.727021   -3.220921    0.011957
C     -0.662114   -0.744909   -0.010823
C     -0.062142   -5.614761   -1.294112
C      5.081626    2.005638   -0.740896
C      2.463696    1.081471   -0.710719
C     -1.037889   -1.972339    0.749977
F      0.242397   -6.773610   -1.954007
N     -2.735053    0.278973    0.848595
O      6.377596    2.452152   -0.745741
O      1.171721    0.607802   -0.679677
Cl     0.690628    0.000000    0.000000
H     -4.159753    4.919443   -1.127968
H     -2.991122    3.494199   -1.255185
H     -4.737397    3.190674   -1.019362
H      7.636961    0.847955   -0.232679
H      7.000334    1.901236    1.134180
H      8.260981    2.490114    0.013868
H     -3.203851    4.754949    1.101109
H     -4.714563    3.707688    1.226961
H     -2.659258    2.571452    2.114279
H     -1.915784    2.801659    0.508918
H      0.636663   -3.905631    1.508324
H     -1.983849   -2.887930   -1.661984
H      1.217029   -6.012409    0.351273
H     -1.402480   -4.989724   -2.812238
H      4.385483    3.378025   -2.218445
H      5.440012    0.499820    0.753603
H      2.093699    2.585097   -2.206862
H      3.183432   -0.304017    0.786251
H     -2.591949   -1.813241    2.225696
H     -2.916414   -3.047358    0.995864
H     -3.641733    1.518813   -0.573355
H     -4.570952    1.322076    1.003669
H     -3.283450   -1.143442   -0.654035
H     -4.321694   -1.037430    0.847586
H     -1.525730    1.125241   -0.586122
H     -0.868742    1.123059    1.061098
H      1.438003   -1.349877    0.050505
H      0.921635   -0.060053    1.241873
H     -0.766668   -0.971085   -1.093333
H     -0.437296   -1.984301    1.681779
H     -0.690628    0.000000    0.000000
