46

C     -2.842508    1.516046   -0.922126
C     -3.394492    0.969168    1.274939
C     -3.450045    2.753032   -0.752683
C     -3.993371    2.171424    1.462698
C      2.246110    0.754731    0.882383
C      3.384195    0.964458    1.665985
C     -2.734888   -1.595567   -1.129474
C     -2.516232   -3.054858   -0.735349
C      3.626395   -0.041343   -0.859659
C     -0.295551   -2.178463   -0.479542
C     -0.067373    0.140496   -1.122867
C      6.852186    0.667860    0.672015
C     -2.790094    0.573843    0.085238
C     -0.661356   -0.731012   -0.089457
C     -4.027320    3.079805    0.445955
C      2.336633    0.250075   -0.390247
C     -2.168817   -0.726278   -0.032708
C      4.640233    0.673732    1.191867
C      4.736001    0.168705   -0.082232
F     -4.635174    4.271772    0.671315
N     -1.275211   -3.120852    0.014956
O      1.304912    0.016217   -1.205081
O      5.910620    0.781942    1.743227
O      6.109665   -0.028836   -0.292859
Cl     0.684765    0.000000    0.000000
H     -2.411734    1.302579   -1.862142
H     -3.381633    0.254945    2.112669
H     -3.487531    3.495229   -1.556450
H     -4.444924    2.401387    2.431493
H      1.326592    1.031291    1.352434
H      3.291020    1.361392    2.663676
H     -3.835402   -1.440073   -1.127582
H     -2.321257   -1.386889   -2.114932
H     -3.321723   -3.411128   -0.053226
H     -2.496813   -3.714053   -1.611858
H      3.779344   -0.441244   -1.851977
H     -0.305657   -2.273360   -1.593274
H      0.688575   -2.461164   -0.084969
H     -0.250964    1.231429   -0.850130
H     -0.454496   -0.050762   -2.151764
H      7.703134    0.031636    0.984794
H      7.187539    1.666235    0.345501
H     -0.298421   -0.511986    0.920032
H     -2.386866   -1.306999    0.914215
H     -0.873299   -4.054565    0.079155
H     -0.684765    0.000000    0.000000
