30

C     -3.189428    1.825003    0.026004
C     -2.691089    0.419776   -0.300198
C      3.803594    1.501918   -0.273788
C      3.681623    0.298987   -0.929080
C      2.859087    1.852660    0.651289
C      2.616218   -0.524136   -0.642595
C      1.776099    1.005440    0.935960
C      0.527097   -1.129499    0.538313
C     -1.684731   -1.973982    0.076515
C      1.632000   -0.198321    0.296133
C     -0.689697   -0.897347   -0.328978
N     -1.268170    0.402039   -0.043466
O     -1.110458   -3.237879   -0.201361
H     -2.338781    2.511715    0.254091
H     -3.851009    1.848169    0.919627
H     -3.740191    2.257109   -0.818939
H     -2.962891    0.121100   -1.323511
H     -3.247033   -0.244026    0.407877
H      4.619171    2.163534   -0.476338
H      4.425039    0.024720   -1.655044
H      2.973918    2.802367    1.153045
H      2.553457   -1.461211   -1.174526
H      1.060268    1.318540    1.666830
H      0.210467   -1.149823    1.621474
H      0.849969   -2.185916    0.322159
H     -1.885447   -1.909405    1.170080
H     -2.624062   -1.935299   -0.473108
H     -0.437306   -0.961470   -1.385812
H     -1.113475    0.685137    0.954484
H     -0.754239   -3.229901   -1.128058
