51

C      6.877144   -0.062520    1.032547
C      6.421272   -0.535757   -0.187559
C      5.980757   -0.008099    2.088889
C     -4.310305    0.212604    1.381470
C     -3.795355   -1.203092    1.158924
C      5.107495   -0.938545   -0.332239
C      4.691947   -0.410572    1.921208
C     -3.393612    1.190075    0.631937
C      1.053427    1.749186   -0.389855
C      2.099810    0.922995   -0.032374
C     -2.269940   -1.200776    1.065423
C     -1.976162   -1.603996   -1.390582
C     -2.001718   -0.804413   -2.659451
C     -1.356397    2.250772   -0.872441
C      0.574850   -0.849380    0.173867
C     -0.252781    1.312380   -0.477410
C      4.203878   -0.886481    0.722822
C      1.873881   -0.406765    0.258903
C     -2.912323    0.448310   -0.591081
C     -0.490611   -0.011931   -0.189175
C     -2.333582    1.350836   -1.645719
C     -1.865965   -0.583596   -0.252251
N     -1.470149    0.531125   -2.510962
O      2.895681   -1.274965    0.622963
Cl     0.683595    0.000000    0.000000
H      7.904204    0.259858    1.171970
H      7.129939   -0.574092   -1.006228
H      6.296133    0.356989    3.065204
H     -4.336345    0.450694    2.453490
H     -5.348487    0.287720    0.959031
H     -4.261971   -1.589020    0.233733
H     -4.134268   -1.850829    1.999678
H      4.741075   -1.306834   -1.270512
H      3.993182   -0.364022    2.759096
H     -2.590219    1.438733    1.342169
H     -4.011153    2.027436    0.308220
H      1.218483    2.802709   -0.622694
H      3.113835    1.280133    0.031182
H     -1.927037   -0.493475    1.859337
H     -1.856332   -2.191965    1.240457
H     -1.165596   -2.344813   -1.347920
H     -2.955241   -2.101269   -1.261059
H     -1.369659   -1.324388   -3.397298
H     -3.048885   -0.677197   -3.051016
H     -1.824738    2.743523   -0.023188
H     -1.010422    3.012590   -1.583446
H      0.385376   -1.884791    0.398655
H     -3.817342   -0.016977   -1.049995
H     -3.065597    1.923891   -2.209348
H     -1.410178    0.948001   -3.462716
H     -0.683595    0.000000    0.000000
