62

C      6.337413   -0.170705   -2.748699
C      6.621870   -1.563825   -0.753601
C      7.420052   -2.336059   -2.976292
C     -4.148413    2.437765    0.431287
C     -5.098157    3.003126    3.885041
C      3.667941   -0.574939   -1.193946
C     -1.142541   -0.266375   -1.233431
C     -1.415335    0.976507    2.800192
C      2.446827   -0.111722   -0.700838
C     -2.351433    0.176861   -0.743449
C     -2.533452    1.991963    2.908956
C     -6.124621    0.173824    1.592126
C     -4.956377    0.151949    0.638065
C     -0.179112    0.107540    0.868332
C      2.554280   -2.399612   -2.182304
C     -0.017368   -0.313156   -0.435730
C     -1.387339    0.552137    1.363631
C      3.759078   -1.723367   -1.943496
C      1.271206   -0.782538   -0.940833
C     -2.504700    0.595826    0.562038
C      1.355091   -1.934967   -1.691823
C     -3.790128    1.271554    2.534626
C     -6.205827    1.459379    2.328758
C      5.006279   -2.243939   -2.473312
C      6.310100   -1.585815   -2.236000
C     -3.835798    1.071674    1.053980
N      0.122692   -2.629115   -1.934664
N     -5.007295    1.925387    2.932607
O     -7.311276    2.049131    2.373651
O      4.975931   -3.293810   -3.158571
H      7.082949   -0.086951   -3.567549
H      6.676764    0.562959   -1.969353
H      5.372693    0.137769   -3.223599
H      5.734251   -1.927482   -0.196618
H      6.838254   -0.525740   -0.453165
H      7.508981   -2.218868   -0.578560
H      7.645687   -1.826472   -3.933409
H      8.325833   -2.243817   -2.344966
H      7.135617   -3.367305   -3.195853
H     -3.230562    2.796312   -0.070645
H     -4.920334    2.351519   -0.358852
H     -4.405114    3.189816    1.199800
H     -5.923922    3.675102    3.593299
H     -4.188860    3.594554    3.982530
H     -5.318453    2.554606    4.883020
H      4.583738   -0.012394   -0.984853
H     -1.042143   -0.593669   -2.275601
H     -0.478327    1.513868    3.055648
H     -1.584556    0.100585    3.450825
H      2.401083    0.794993   -0.113031
H     -3.238331    0.211706   -1.378502
H     -2.528003    2.368184    3.948590
H     -2.345369    2.780143    2.152911
H     -7.054671   -0.037379    1.029070
H     -5.923359   -0.616691    2.353999
H     -5.354597    0.421707   -0.380388
H     -4.553554   -0.875662    0.531087
H      0.702003    0.078304    1.517525
H      2.605549   -3.309653   -2.773006
H     -3.752278    0.257748    3.008908
H     -0.021342   -2.979877   -2.904124
H     -0.589220   -2.782596   -1.210430
