27

C      3.476923    0.906606    0.114062
C      2.845994   -0.426086    0.420788
C     -3.016800    1.897267   -0.597681
C     -2.008131    2.149366    0.300593
C     -3.282384    0.607345   -1.027708
C     -1.222398    1.150338    0.811272
C     -2.495995   -0.395869   -0.517244
C     -0.639705   -1.231753    0.924250
C     -1.467274   -0.142108    0.398260
C      1.435365   -0.428319   -0.082545
C      0.548307   -1.595079    0.066180
O      0.993063    0.561668   -0.635889
O      1.220483   -2.691803    0.624929
H      4.554860    0.917505    0.275924
H      2.937938    1.683424    0.721958
H      3.203200    1.151874   -0.952415
H      3.442914   -1.219487   -0.084827
H      2.880773   -0.608002    1.509865
H     -3.614313    2.711596   -0.977414
H     -1.853218    3.176164    0.594802
H     -4.086163    0.437780   -1.738481
H     -0.437332    1.420381    1.526608
H     -2.693138   -1.401510   -0.844052
H     -0.316015   -1.031971    1.984734
H     -1.235965   -2.182593    1.015753
H      0.157964   -1.914775   -0.922382
H      0.671049   -3.501960    0.523019
