64

C     -1.296991   -0.184773   -3.772819
C     -1.153362   -1.070179   -2.727031
C     -2.327678    0.726154   -3.739029
C     -3.797214    0.824147    0.475735
C     -5.057970   -0.947315   -0.414532
C      7.699793   -0.574021   -1.889861
C     -4.645123    0.924902    1.571113
C     -5.912973   -0.854182    0.679094
C      1.780114    0.944251    3.766867
C      0.945001   -0.135937    3.841675
C      7.658028    0.075595   -0.658665
C     -1.798664   -2.022106   -0.578631
C      5.463763    0.276828   -2.338227
C      1.688631    0.756389    1.365049
C     -0.861343   -2.595133    1.668143
C      3.506801    3.080001    1.294732
C     -3.978062   -0.096406   -0.525354
C     -2.032267   -1.050937   -1.648154
C     -1.058111   -1.527559    0.601553
C      6.570371   -0.430523   -2.676063
C     -5.721893    0.069874    1.674157
C      2.161819    1.401401    2.499173
C     -3.222339    0.775729   -2.683376
C      0.843074   -0.336921    1.470186
C      5.413490    0.933826   -1.101144
C      0.469243   -0.786094    2.703427
C      6.520785    0.803192   -0.310392
C      4.383553    2.219625    0.441642
C     -3.045278   -0.142705   -1.632427
C      0.336672   -1.033011    0.275604
C     -4.310734    1.737181   -2.685751
F      6.624578   -1.077002   -3.888646
N      4.439215    1.652771   -0.615342
N     -6.586969    0.177321    2.802308
O      1.124123   -2.160883    0.027928
O     -4.436879    2.554053   -3.627614
O     -5.210999    1.753225   -1.650199
O     -7.674746   -0.644955    2.964765
O     -6.373972    1.032170    3.681854
O      2.997356    2.481550    2.418133
O     -0.382145   -1.887601    2.820786
S      6.082760    1.750093    1.128140
H     -0.634868   -0.158078   -4.640885
H     -0.357087   -1.774284   -2.754167
H     -2.458736    1.426221   -4.543349
H     -2.943686    1.502215    0.394896
H     -5.212976   -1.675926   -1.194137
H      8.565748   -1.136192   -2.172504
H     -4.488304    1.666877    2.365918
H     -6.742711   -1.523658    0.743936
H      2.169214    1.472776    4.613451
H      0.626787   -0.519757    4.809478
H      8.497581    0.016876    0.020006
H     -1.293183   -2.961250   -0.971163
H     -2.779443   -2.440235   -0.182271
H      4.647894    0.304961   -3.054461
H      1.992761    1.144612    0.402337
H     -0.031704   -3.267079    1.367329
H     -1.790988   -3.115582    1.926577
H      4.117838    3.979795    1.582127
H      2.677089    3.386006    0.632145
H     -1.578289   -0.696465    1.083960
H      0.351167   -0.401360   -0.633643
H      0.842436   -2.622509   -0.804388
