62

C      8.206915   -0.015321   -0.166918
C      6.416633   -0.013248   -1.876171
C      6.635175    1.836952   -0.185421
C     -4.339299    1.650560    0.536681
C     -6.548007    0.149593   -1.768765
C      3.788941    0.540198   -0.302003
C     -0.391383   -0.056835    1.809548
C     -2.614896    0.141028   -1.766572
C      2.396510    0.656970   -0.287825
C     -1.779804    0.027888    1.840872
C     -3.845170   -0.739470   -1.701591
C     -5.997598   -0.635980    1.920497
C     -4.566963   -0.251555    2.003420
C     -0.445510   -0.008712   -0.584834
C      3.685608   -1.149152    1.325416
C      0.242862   -0.073258    0.606313
C     -1.830339    0.075057   -0.519335
C      4.450295   -0.357379    0.497729
C      1.687634   -0.161363    0.560169
C     -2.508483    0.094577    0.672913
C      2.308675   -1.087373    1.390931
C     -4.553913   -0.667231   -0.393049
C     -6.689722   -0.289385    0.679579
C      5.905543   -0.456659    0.457124
C      6.745871    0.364805   -0.429084
C     -3.964918    0.190275    0.659240
N      1.546700   -1.912949    2.250595
N     -5.950164   -0.256271   -0.534057
O     -7.924560   -0.025684    0.697881
O      6.429849   -1.315246    1.249328
H      8.403768    0.249666    0.893389
H      8.348530   -1.106396   -0.297377
H      8.871345    0.597727   -0.789954
H      6.193199    0.888189   -2.465402
H      5.534809   -0.671450   -1.905407
H      7.260224   -0.591077   -2.312192
H      7.597102    2.294890    0.188503
H      5.897027    2.091522    0.630071
H      6.415124    2.398616   -1.123426
H     -4.450197    2.007371   -0.481664
H     -5.273278    1.891459    1.082057
H     -3.536138    2.233208    1.031502
H     -5.950482    0.904760   -2.319505
H     -6.678041   -0.732498   -2.453738
H     -7.549200    0.603749   -1.634980
H      4.356276    1.181050   -0.964238
H      0.092260   -0.104458    2.773858
H     -1.979005   -0.258778   -2.584085
H     -2.859016    1.187400   -2.075180
H      1.919219    1.390231   -0.946945
H     -2.332518    0.044584    2.763618
H     -3.491063   -1.780018   -1.903931
H     -4.473587   -0.473233   -2.577317
H     -6.534210   -0.160821    2.793434
H     -6.154111   -1.741419    2.084672
H     -3.957418   -1.118860    2.334077
H     -4.393074    0.544860    2.761464
H      0.102070   -0.024922   -1.515986
H      4.208857   -1.856192    1.955351
H     -4.618748   -1.714067    0.030404
H      1.745442   -1.931870    3.261647
H      0.788356   -2.498060    1.859029
