53

C      3.703363   -3.401285    0.096500
C      1.138141    2.732191   -1.431273
C     -0.143754    2.840368    0.520129
C      0.517355    3.836805   -1.940555
C     -0.778839    3.947186    0.027882
C     -3.167882   -0.379220    1.577196
C     -4.549533   -0.480575    1.473270
C      3.044218    1.105709    0.345134
C      3.988327   -3.877179    1.469593
C      3.946196   -1.917901    0.088076
C      3.496814    0.073649    1.327728
C     -2.980550   -0.673490   -0.750886
C      1.668038   -1.348572    0.708671
C     -0.231748   -0.487538   -0.606378
C     -6.369823   -1.581210   -1.379744
C      0.856289    2.184887   -0.212956
C      1.221211   -0.308212   -0.296209
C     -0.477657    4.492702   -1.219375
C     -2.373519   -0.474567    0.464545
C      1.509956    1.023473    0.355187
C     -5.123153   -0.681393    0.224509
C     -4.329496   -0.779819   -0.907934
F     -1.114897    5.594056   -1.685356
N      4.194550   -4.252896    2.562712
N      3.068193   -1.276475    1.041572
O     -1.018687   -0.370225    0.583999
O     -6.464399   -0.820801   -0.175635
O     -5.216894   -0.973856   -1.964495
Cl     0.692003    0.000000    0.000000
H      4.434399   -3.894961   -0.617518
H      2.678827   -3.632668   -0.144914
H      1.914910    2.244969   -2.042280
H     -0.395883    2.428896    1.509152
H      0.728035    4.281079   -2.914426
H     -1.561740    4.469549    0.598279
H     -2.740714   -0.232953    2.545009
H     -5.121321   -0.399844    2.372035
H      3.382698    2.103225    0.658484
H      3.360296    0.833260   -0.672538
H      3.798643   -1.489590   -0.931688
H      4.990072   -1.751973    0.475927
H      4.608722    0.027328    1.389994
H      3.072369    0.374723    2.327477
H     -2.341499   -0.750914   -1.638296
H      1.098563   -1.117518    1.668558
H      1.383794   -2.356882    0.448010
H     -0.602969    0.239502   -1.355759
H     -0.420893   -1.497410   -1.006024
H     -7.240797   -1.430983   -2.023089
H     -6.109022   -2.616508   -1.174998
H      1.832584   -0.457319   -1.218211
H      1.239101    0.881178    1.450909
H     -0.692003    0.000000    0.000000
