28

C     -3.160150    0.247149   -0.938722
C      3.032935    0.715021    0.557826
C     -1.535654    0.470166    0.956648
C     -0.066084    0.867327    1.166289
C     -0.809641   -0.621380   -1.104428
C     -1.715030    0.430856   -0.555633
C      1.919066   -0.002320   -0.102641
C      0.758862   -0.321555    0.815671
C      0.012705   -1.321814   -0.064878
C      2.265266   -1.369804   -0.566178
O      3.441254   -1.770606   -0.746048
O      1.059675   -2.030815   -0.734014
H     -3.707854    1.150524   -0.597143
H     -3.616115   -0.647965   -0.504985
H     -3.224546    0.203870   -2.027006
H      2.968684    1.800871    0.264800
H      3.992895    0.359159    0.126830
H      3.052539    0.634440    1.657344
H     -2.140987    1.250421    1.433834
H     -1.720867   -0.540658    1.402847
H      0.059957    1.189180    2.235104
H      0.097543    1.741537    0.502769
H     -0.176777   -0.164074   -1.896662
H     -1.424200   -1.391074   -1.615558
H     -1.429190    1.464925   -0.906976
H      1.539037    0.547473   -0.983563
H      1.118037   -0.868575    1.707516
H     -0.591357   -2.022281    0.516957
