53

C      7.644344    2.557718   -2.158855
C     -8.513005    2.511881   -0.593669
C      5.655400    1.232704   -0.740531
C      7.118897   -0.499002   -0.177897
C      4.597428    0.642612   -0.054089
C      6.119607   -1.135500    0.517426
C     -2.431224   -0.843754    1.503107
C     -1.470545   -0.363341    2.366524
C     -5.787060    1.992841   -0.846113
C     -4.437656    1.720950   -0.968847
C     -6.189699   -0.310616   -0.471166
C     -0.779048   -2.003171    0.231249
C     -4.400255   -1.958813   -0.455590
C      2.182853   -0.687240    2.955904
C     -4.824368   -0.557850   -0.599285
C      6.913154    0.702958   -0.825859
C      4.832565   -0.551224    0.579710
C     -6.665796    0.970406   -0.596016
C     -2.104663   -1.663122    0.432204
C      0.214700   -1.529863    1.091632
C     -0.138514   -0.721396    2.141804
C      2.533041   -0.824989    1.472119
C      1.642561   -1.900676    0.869114
N     -3.999614    0.475601   -0.844521
O      1.898119   -3.145791    1.439848
O      7.950776    1.329388   -1.527318
O     -8.016721    1.201978   -0.467321
O     -3.023961   -2.163026   -0.450590
O      0.842592   -0.247426    3.000476
O      3.841422   -1.190976    1.274391
H      8.494659    2.983865   -2.697321
H      6.826690    2.428255   -2.923555
H      7.230345    3.285287   -1.404825
H     -9.586983    2.553322   -0.254327
H     -8.458908    2.882993   -1.643244
H     -7.918118    3.192930    0.062090
H      5.454975    2.171132   -1.233765
H      8.109132   -0.932781   -0.235075
H      3.624643    1.097606   -0.014863
H      6.258907   -2.081179    1.034379
H     -3.452875   -0.570307    1.678108
H     -1.714334    0.282206    3.212883
H     -6.156082    2.989295   -0.943433
H     -3.786623    2.572477   -1.167519
H     -6.879247   -1.114000   -0.274647
H     -0.467835   -2.646776   -0.598605
H     -4.920713   -2.418571    0.419832
H     -4.810754   -2.513564   -1.345798
H      2.805411    0.096204    3.396807
H      2.309634   -1.683829    3.438504
H      2.276657    0.113270    0.989575
H      1.834253   -1.906455   -0.211127
H      1.721836   -3.822639    0.738600
