65

C      6.548286   -0.584804   -0.075191
C      6.536865    1.871860   -0.170404
C      6.451882    0.655518    2.020968
C     -3.717316    2.013985    1.398145
C     -3.411659    2.670286    0.059730
C     -4.395148    0.712582    1.128775
C     -0.999935   -2.414166    1.094681
C      0.342420   -2.069811    0.915768
C     -2.326273    1.840374   -0.589190
C     -2.741093    0.073190   -2.212330
C     -3.848274   -0.918827   -2.534215
C     -3.433272   -2.079550    0.814874
C     -0.372317   -0.148719   -0.314615
C      2.398599    0.550043   -0.676331
C     -2.026488   -1.648142    0.583079
C      0.641599   -0.926781    0.204213
C     -4.102587    0.111429   -0.197262
C     -1.693208   -0.512544   -0.122823
C     -4.297949   -1.390975   -0.214476
C      4.522762    0.639659    0.534462
C      6.012098    0.671200    0.577624
C     -2.723648    0.392096   -0.721788
N     -3.953743   -1.909935   -1.502338
O      3.844312    0.667272    1.595891
O      1.970547   -0.581640    0.024429
O      3.816401    0.579318   -0.654629
C      0.473735    0.301877   -0.032470
C     -0.945155   -0.100199    0.027528
F     -1.371149   -0.283974    1.345996
F     -1.746230    0.804194   -0.639630
F     -1.100069   -1.314310   -0.643262
O      0.752747    1.407858   -0.562994
O      1.506925   -0.473801    0.463573
H      7.573573   -0.804378    0.333984
H      6.649250   -0.486894   -1.168136
H      5.938453   -1.474545    0.181998
H      7.627767    1.816477   -0.193038
H      6.208217    2.779355    0.374169
H      6.147646    1.816971   -1.195269
H      6.069940   -0.280280    2.466625
H      7.523387    0.806790    2.153131
H      5.882489    1.486687    2.524993
H     -4.350082    2.658947    2.032559
H     -2.723599    1.792296    1.861333
H     -3.027451    3.691950    0.169887
H     -4.304571    2.588693   -0.574575
H     -4.200982    0.043764    1.994665
H     -5.506698    0.910690    1.168688
H     -1.246154   -3.309620    1.651779
H      1.135862   -2.682022    1.323878
H     -2.006668    2.295577   -1.547252
H     -1.444043    1.896301    0.094628
H     -2.968459    1.006779   -2.767914
H     -1.741422   -0.305385   -2.552714
H     -3.522484   -1.444399   -3.461620
H     -4.801503   -0.421485   -2.785668
H     -3.769031   -1.943750    1.843265
H     -3.531658   -3.184699    0.601538
H     -0.068211    0.733110   -0.861552
H      2.063498    0.565257   -1.734394
H      1.969514    1.469024   -0.205747
H     -4.820252    0.512248   -0.972211
H     -5.364550   -1.637256    0.057664
H     -4.434642   -2.769510   -1.781739
H      2.429196   -0.341645    0.041260
