56

C      8.535847    2.944031    2.425033
C      6.637589   -1.408566   -0.760872
C      5.378598   -1.399440   -1.322363
C      7.095713   -0.339955    0.017765
C    -10.481243    1.327621   -0.039161
C     -2.081435   -2.130750    1.205952
C     -0.820798   -2.664825    1.254783
C     -9.664094    0.508847   -0.799368
C      5.041714    0.750391   -0.322074
C      3.238940   -0.254927   -1.671761
C     -8.511083    2.243853    1.011431
C     -1.471058   -0.709073   -0.555428
C      2.446950   -2.294768   -0.453515
C     -4.180004    0.356706   -0.573333
C      4.581616   -0.299056   -1.091334
C      6.295355    0.758650    0.246322
C      2.180132   -0.845441   -0.773218
C     -9.861153    2.163454    0.837662
C     -2.461960   -1.150122    0.320713
C     -0.198427   -1.217721   -0.538541
C     -7.657107    1.429395    0.258090
C      0.122232   -2.195382    0.368169
C     -8.284860    0.575965   -0.636819
C     -5.617146    0.690916   -0.337241
C      0.842336   -0.740570   -1.473501
C      6.788834    1.860901    1.058869
F    -10.655476    2.986705    1.603900
N     -6.359284    1.357993    0.276809
O      0.881211   -1.627908   -2.564828
O      6.025581    2.841413    1.240858
O      8.037005    1.884281    1.632874
O     -3.745713   -0.650077    0.317539
O      1.411148   -2.730362    0.406318
S     -6.903875   -0.271071   -1.386136
H      9.205459    2.576060    3.243733
H      9.208572    3.542845    1.756637
H      7.754049    3.590274    2.826251
H      7.282987   -2.268906   -0.931484
H      5.053607   -2.246100   -1.922188
H      8.086062   -0.361878    0.451541
H    -11.531029    1.301002   -0.138482
H     -2.849287   -2.490721    1.904228
H     -0.543483   -3.449031    1.973814
H    -10.058277   -0.197742   -1.531597
H      4.424701    1.633483   -0.126504
H      2.910562    0.793887   -1.892765
H      3.214790   -0.789857   -2.632200
H     -8.135791    2.954049    1.745967
H     -1.762558    0.074285   -1.267718
H      2.417956   -2.944112   -1.350493
H      3.395084   -2.373256    0.106137
H     -3.607609    1.269940   -0.392521
H     -4.036639    0.038179   -1.628810
H      2.091114   -0.302309    0.189195
H      0.644874    0.291390   -1.828678
H      0.248772   -2.392590   -2.432389
