92

C     10.639937    2.941780    1.631194
C      0.223444   -1.442522   -0.603266
C    -11.953476   -1.991190    1.377979
C     10.169256    3.862588    0.539374
C      8.693099    4.155908    0.637839
C      7.831441    2.905070    0.546131
C      8.075890    2.256140   -0.774205
C      7.246960    1.009856   -0.915662
C      7.619371    0.005012    0.131369
C      6.823940   -1.240708   -0.051232
C      5.355461   -1.017726    0.093899
C      5.019293   -0.526624    1.506159
C     -6.489346   -0.442409   -4.365739
C     -5.182677   -0.023162   -4.326067
C     -7.677374   -2.937217    3.348012
C     -7.060899   -2.310207    2.304330
C     -7.030427   -1.103422   -3.260661
C     -9.078726   -3.015081    3.376607
C     -4.444105   -0.269336   -3.193070
C      3.517233   -0.360978    1.648322
C     -7.185363   -1.057862    0.129373
C     -6.892236   -2.061546   -0.977244
C     -2.549846    0.485035   -0.439737
C     -3.002527   -0.927511   -0.549575
C     -9.178611   -1.844099    1.325078
C     -0.512750    1.870313    0.150294
C      0.545207    0.740950   -1.575329
C     -7.785515   -1.761674    1.289860
C     -6.292216   -1.344754   -2.138984
C     -1.098442    0.485584    0.029672
C     -9.825308   -2.470098    2.370383
C      0.901448    1.618063   -0.316139
C     -4.960985   -0.915914   -2.104578
C      2.944456    0.658354    0.736851
N     -0.344115   -0.190715   -0.974206
O      3.659816    1.518169    0.135314
O    -11.220164   -2.575490    2.449422
O     -4.275240   -1.189237   -0.958256
O      1.608624    0.742620    0.478933
Cl     0.683953    0.000000    0.000000
H     11.078012    2.045514    1.135310
H      9.835876    2.578101    2.300490
H     11.422137    3.453523    2.233687
H     -0.327272   -1.835820    0.290515
H      0.028334   -2.167258   -1.424216
H      1.307649   -1.438185   -0.406265
H    -13.022612   -2.219789    1.541664
H    -11.719794   -0.915897    1.363440
H    -11.573336   -2.448488    0.451069
H     10.685468    4.845687    0.668859
H     10.404419    3.483054   -0.464729
H      8.461625    4.697623    1.555364
H      8.436612    4.794299   -0.237729
H      8.000968    2.240002    1.397919
H      6.776359    3.276563    0.529840
H      9.150767    2.010529   -0.963524
H      7.799398    2.996694   -1.581673
H      7.464180    0.614425   -1.941289
H      6.168530    1.251745   -0.892754
H      8.737489   -0.224684    0.071685
H      7.407554    0.383776    1.156285
H      7.122834   -1.947158    0.782869
H      7.084707   -1.758941   -1.005964
H      4.943268   -0.292748   -0.639198
H      4.855665   -2.021004   -0.067466
H      5.329191   -1.287532    2.241415
H      5.518681    0.416701    1.724140
H     -7.048198   -0.247432   -5.252496
H     -4.745951    0.497846   -5.190216
H     -7.115914   -3.377150    4.159129
H     -5.984360   -2.250414    2.280674
H     -8.045984   -1.400172   -3.349714
H     -9.589110   -3.518362    4.205762
H     -3.423816    0.066683   -3.207979
H      3.227303   -0.163106    2.705422
H      3.068489   -1.350600    1.387738
H     -6.254532   -0.511442    0.416549
H     -7.892723   -0.270008   -0.185216
H     -6.120277   -2.777591   -0.623705
H     -7.838016   -2.567181   -1.239259
H     -3.110031    0.912669    0.455929
H     -2.745089    1.149261   -1.270519
H     -2.302920   -1.414591   -1.303199
H     -2.702941   -1.436648    0.404841
H     -9.802556   -1.421335    0.544997
H     -0.591687    2.321003    1.134953
H     -0.997457    2.507876   -0.607889
H      0.001266    1.383194   -2.282987
H      1.467383    0.287811   -1.967978
H     -1.074930    0.008182    1.022095
H      1.410818    2.456101   -0.769121
H     -0.683953    0.000000    0.000000
