54

C     -5.466104    1.625488   -1.017865
C     -3.786967   -0.021416    2.638046
C      5.808848   -1.708312    1.757838
C     -0.317004    0.206337   -4.890346
C     -1.485030    0.163238   -4.145717
C      0.898459   -1.241855    1.900449
C      1.579365   -1.688608    3.031658
C      7.211193   -1.360308    1.911358
C      5.000917   -0.554738    2.338039
C      1.021820    0.039837   -2.883589
C      2.145747    0.197378   -5.018136
C     -3.146327    2.049093   -0.955147
C     -3.124112   -0.093003    0.409398
C      0.902463    0.147370   -4.280462
C     -0.154620   -0.000693   -2.172590
C     -1.382383    0.058384   -2.769348
C      1.602392   -0.561880    0.904160
C      2.928615   -1.476934    3.192704
C     -0.172834   -0.119770   -0.655911
C     -1.058545    0.982456   -0.193817
C     -2.519849    0.705047   -0.683118
N      8.365573   -1.088178    2.043099
N      3.134940    0.255044   -5.594851
N      1.123040   -0.111694   -0.141438
N      2.943754   -0.395710    1.146810
N      3.562136   -0.819438    2.209527
O      3.544276   -1.887793    4.229925
O     -1.029200    1.175898    1.161198
O     -4.342651    2.130593   -1.524709
O     -3.208171    0.643724    1.590285
O     -2.470197    0.006540   -1.903852
H     -5.595101    0.552457   -0.893149
H     -6.356073    1.937584   -1.653838
H     -5.659313    2.131129   -0.024305
H     -3.801152    0.690990    3.511538
H     -4.857775   -0.281886    2.481233
H     -3.189682   -0.910064    2.950826
H      5.564197   -2.656263    2.302294
H      5.550019   -1.917595    0.703193
H     -0.421738    0.291161   -5.962605
H     -2.467194    0.210378   -4.575035
H     -0.160607   -1.400826    1.766431
H      1.018451   -2.218885    3.795407
H      5.230674    0.336748    1.705783
H      5.223401   -0.402231    3.397065
H      1.985676   -0.000869   -2.396496
H     -2.392058    2.614086   -1.608249
H     -3.153866    2.665191    0.005586
H     -2.371301   -0.904757    0.655983
H     -4.051479   -0.605366    0.236094
H     -0.718650   -1.088676   -0.495531
H     -0.723158    1.922559   -0.719372
H      3.455847    0.133696    0.369603
H     -0.218663    1.645342    1.470796
