54

C      4.997299   -3.198315   -1.402125
C      5.081334   -2.912491    1.083735
C     -3.569608    2.021523   -2.041540
C     -2.662749    0.991611   -2.621882
C     -3.469852    2.126567   -0.537934
C     -0.111782    2.251612    2.385393
C      1.209759    2.132869    2.040448
C     -1.419197    0.759455   -1.809108
C     -1.688480   -1.165013   -0.246510
C     -2.664047   -1.550869    0.827004
C     -2.546751    1.827413    2.059580
C      0.584527    0.870915    0.141677
C      3.729583    0.771139   -0.320712
C      4.198234   -3.002412   -0.157633
C     -1.127751    1.697886    1.640501
C      1.598298    1.419372    0.878256
C     -3.143098    0.750596   -0.015724
C     -0.780964    1.006924    0.516584
C     -3.301218    0.658518    1.480432
C      3.377632   -1.743572   -0.268548
C     -1.761573    0.355973   -0.384316
N     -2.673251   -0.560612    1.906653
O      2.123501   -1.825948   -0.365744
O      2.931480    1.353504    0.598713
O      3.934109   -0.556726   -0.263177
H      5.300812   -2.232770   -1.814122
H      4.461446   -3.834592   -2.151504
H      5.904445   -3.799320   -1.098293
H      5.974410   -3.572532    0.864306
H      5.441838   -1.859717    1.228959
H      4.578338   -3.263800    1.994428
H     -3.521966    3.017079   -2.533284
H     -4.621413    1.663646   -2.257953
H     -2.372024    1.280285   -3.636128
H     -3.195720   -0.002637   -2.718253
H     -2.719549    2.894633   -0.290327
H     -4.489625    2.405268   -0.160201
H     -0.422258    2.797944    3.284880
H      1.991931    2.570810    2.629515
H     -0.873386   -0.084640   -2.257212
H     -0.769304    1.643404   -1.825829
H     -0.667221   -1.531598   -0.063499
H     -2.081000   -1.602680   -1.211351
H     -2.309371   -2.495654    1.273976
H     -3.690424   -1.757781    0.443282
H     -2.640353    1.849241    3.170721
H     -3.024122    2.782143    1.706971
H      0.824591    0.360142   -0.766004
H      4.745015    1.291423   -0.272513
H      3.319733    1.057962   -1.376460
H      3.481515   -3.857887   -0.009181
H     -3.912721    0.058353   -0.457215
H     -4.367006    0.716721    1.795298
H     -3.192045   -0.973366    2.688627
