73

C     -8.411753    1.174196    1.524660
C     -9.258848    1.931914   -0.694999
C     -8.694411   -0.476702   -0.313018
C      8.164259    3.971402    0.196193
C      6.817538    3.737684    0.062586
C      9.074421    2.942327    0.096980
C      0.855601   -4.039448   -0.898971
C     -0.180420   -3.809071    0.179074
C      6.358407    2.446520   -0.176355
C      8.621428    1.679197   -0.137022
C      1.535309   -2.750334   -1.299286
C     -0.602029    1.050127   -1.203136
C     -1.930303    0.899337   -0.880276
C      0.346874   -3.018800    1.334542
C      1.478322   -1.034104    2.125671
C      2.525002   -0.016132    1.883497
C      1.746028    0.350435   -0.938314
C     -1.428757   -0.914572    0.583581
C      6.855872    0.037133   -0.522455
C     -4.623569    0.613303   -0.241318
C      7.265336    1.432275   -0.273325
C      0.322814    0.176730   -0.598680
C     -2.347991   -0.072004    0.004528
C      1.998247   -1.995761   -0.104896
C     -0.079595   -0.798138    0.286121
C      2.667236   -0.718573   -0.485344
C     -6.937517    1.180144   -0.380326
C      4.720043    0.017402    0.688802
C     -8.356202    0.972101    0.004795
C      0.933667   -1.691350    0.890407
N      3.332400   -0.224397    0.728297
O     -6.684526    2.101440   -1.197729
O      5.281183    0.443198    1.735558
O      5.482719   -0.187809   -0.428442
O     -3.687442   -0.240210    0.344150
O     -5.938455    0.376259    0.153137
H     -7.903372    2.133988    1.748412
H     -9.441521    1.193926    1.885139
H     -7.792082    0.374996    1.970040
H     -8.761462    2.440129   -1.564814
H    -10.115556    1.380696   -1.123132
H     -9.603182    2.709756    0.042376
H     -9.742524   -0.659058   -0.006520
H     -8.569228   -0.607262   -1.410462
H     -7.956321   -1.104316    0.202446
H      8.525122    4.974219    0.381983
H      6.102608    4.558118    0.142416
H     10.118305    3.178063    0.209201
H      0.323753   -4.434988   -1.790467
H      1.585512   -4.818656   -0.598485
H     -0.430223   -4.834184    0.581202
H     -1.106400   -3.396076   -0.209151
H      5.304530    2.293800   -0.278450
H      9.324939    0.867250   -0.216271
H      0.864442   -2.210244   -1.965785
H      2.431464   -3.039601   -1.893595
H     -0.254904    1.805698   -1.894451
H     -2.688827    1.530586   -1.304007
H     -0.422692   -2.913542    2.098621
H      1.197425   -3.570486    1.827176
H      0.613766   -0.530485    2.635024
H      1.809588   -1.819238    2.854035
H      2.118469    1.034047    1.866685
H      3.218027   -0.021008    2.775603
H      1.793206    0.494480   -2.056603
H      2.030961    1.370528   -0.541743
H     -1.749429   -1.667329    1.276553
H      7.416794   -0.651007    0.166263
H      7.182291   -0.281543   -1.554750
H     -4.337354    1.659894    0.049431
H     -4.505048    0.513513   -1.356300
H      2.765019   -2.633488    0.409010
H      3.433024   -0.866893   -1.295455
