70

C      7.675467    3.632594    1.891554
C      7.988157    1.247744    1.290142
C     -6.363988    3.632168    1.306040
C     -5.887240    3.010908    2.440034
C     -6.747374    2.885725    0.222140
C      0.371907   -3.934565   -2.774900
C      0.703892   -4.317992   -1.345134
C     -5.814368    1.616528    2.433968
C     -6.669066    1.502532    0.231627
C     -0.394995   -2.606487   -2.809341
C      0.237680    1.484317   -1.283223
C      1.530223    1.801002   -0.919890
C      1.122670   -3.088952   -0.530399
C     -0.701920   -2.168541    0.928607
C     -2.174682   -2.382871    0.856827
C     -1.671255   -0.011957   -1.542462
C      1.834199   -0.453098   -0.207032
C     -6.094237   -0.592360    1.421838
C      4.177912    2.398071   -0.161677
C      7.171609    2.219057    2.093915
C     -6.197665    0.864858    1.349559
C     -0.284026    0.216899   -1.122867
C      2.352834    0.828900   -0.372411
C     -1.021775   -2.433453   -1.467573
C      0.539252   -0.746364   -0.577553
C     -2.127260   -1.423799   -1.422710
C      5.778961    2.156964    1.618714
C     -4.095031   -1.020885    0.010778
C     -0.014365   -2.113027   -0.401761
N     -2.831019   -1.598734   -0.170440
O      4.814441    1.840968    2.367685
O     -4.602934   -0.353015   -0.924896
O     -4.840290   -1.131981    1.163512
O      3.650189    1.074065    0.011901
O      5.517943    2.459936    0.287098
H      8.789269    3.607050    1.794718
H      7.278889    4.031522    0.933673
H      7.401750    4.285579    2.750440
H      9.008437    1.589718    1.102880
H      7.484727    1.058581    0.323961
H      8.005133    0.281341    1.869369
H     -6.433234    4.713179    1.278081
H     -5.591400    3.606115    3.278958
H     -7.127164    3.377755   -0.681349
H     -0.350745   -4.691948   -3.159178
H      1.236848   -3.923635   -3.434832
H     -0.098044   -4.884453   -0.854313
H      1.608771   -4.960595   -1.389701
H     -5.431390    1.162416    3.350728
H     -6.992301    0.959162   -0.664809
H      0.409350   -1.824293   -2.913438
H     -1.113268   -2.565252   -3.630642
H     -0.346822    2.303673   -1.706729
H      1.950639    2.804970   -1.044422
H      1.541168   -3.428136    0.416352
H      1.951779   -2.624907   -1.134791
H     -0.258774   -3.019219    1.496262
H     -0.517079   -1.239793    1.529269
H     -2.420131   -3.473607    0.775791
H     -2.620404   -2.063726    1.830450
H     -1.796410    0.390025   -2.587973
H     -2.317734    0.662145   -0.910940
H      2.498041   -1.209549    0.227468
H     -6.812532   -1.083177    0.705220
H     -6.416117   -0.991787    2.425023
H      4.121859    2.629916   -1.246913
H      3.531150    3.144199    0.353684
H      7.189227    1.965204    3.173558
H     -1.484125   -3.424956   -1.188179
H     -2.813208   -1.658671   -2.282939
