57

C      6.744466   -1.196653    0.260539
C      6.612077    1.113692    1.143417
C      6.423407    0.694669   -1.317823
C     -4.426858    2.472262   -0.279886
C     -3.689911    2.394359    1.038802
C     -4.297374    1.142264   -1.035852
C     -0.977008   -1.742793   -2.181479
C      0.321685   -1.324921   -2.017777
C     -2.423828    1.560643    0.933095
C     -2.801531   -0.731604    1.857186
C     -3.253316   -2.121611    1.503814
C     -3.364660   -1.736265   -1.533498
C     -0.363892    0.029972   -0.168368
C      2.373432    0.869156    0.125431
C     -1.980109   -1.262223   -1.320886
C      0.633750   -0.436318   -1.010007
C     -4.115933    0.090805   -0.002053
C     -1.683872   -0.385461   -0.323279
C     -4.339672   -1.312461   -0.500447
C      4.624363   -0.002630    0.164096
C      6.095766    0.152598    0.072778
C     -2.728995    0.122585    0.585582
N     -4.379195   -2.179629    0.638407
O      4.119286   -1.128409    0.367907
O      1.955392   -0.038922   -0.877710
O      3.764472    1.093602    0.026595
H      7.765580   -1.089100    0.712634
H      6.154414   -1.825975    0.976554
H      6.879818   -1.698316   -0.716512
H      7.208720    1.932880    0.678399
H      7.286489    0.600821    1.852894
H      5.743275    1.477713    1.706268
H      7.217424    0.080466   -1.788497
H      5.547730    0.645840   -1.983201
H      6.810316    1.729419   -1.260926
H     -5.522275    2.530446   -0.009036
H     -4.149522    3.324574   -0.895568
H     -3.373049    3.409107    1.361746
H     -4.309004    1.969302    1.851739
H     -3.324752    1.237489   -1.597174
H     -5.129385    0.975537   -1.723422
H     -1.232785   -2.442559   -2.972396
H      1.109584   -1.680166   -2.666437
H     -1.841681    1.685595    1.844122
H     -1.865745    1.986380    0.048711
H     -1.756215   -0.796116    2.226746
H     -3.494856   -0.242791    2.543433
H     -2.386490   -2.731632    1.140239
H     -3.548781   -2.611779    2.472334
H     -3.697978   -1.518450   -2.570510
H     -3.300916   -2.862866   -1.489014
H     -0.122275    0.718473    0.612524
H      1.833639    1.805282   -0.030461
H      2.133626    0.487067    1.144920
H     -4.828363    0.267684    0.828268
H     -5.351517   -1.321897   -0.963534
H     -5.296968   -2.179136    1.094971
