76

C     -2.332814   -3.656781    0.991891
C     -3.516571   -2.715961   -0.971550
C     -1.641129   -1.381642    3.301075
C     -3.907673   -0.588823    2.885161
C     -2.018238    3.169910   -3.236569
C     -4.070715    2.945323   -1.816463
C     -2.653268    3.011893    1.078910
C     -1.021985    4.025020   -0.415492
C      2.584037   -2.118032    0.248796
C      6.767268   -2.061929    1.694108
C      6.384813   -0.774878    1.948414
C      6.617901   -2.590739    0.422326
C      5.853015   -0.014914    0.933518
C      6.087143   -1.814188   -0.566345
C      5.113230    0.304842   -1.443588
C     -0.199451   -1.821584   -0.649582
C     -3.133594   -2.500594    0.474609
C     -2.477593   -0.385280    2.487673
C     -2.842333    2.267139   -2.376031
C     -1.413598    2.732045    0.228247
C      2.193796   -1.106056   -0.491635
C      5.686634   -0.498765   -0.342475
C      0.932634   -0.994144   -1.254132
C      1.851497    1.167741   -1.152828
C      2.936615    0.160133   -0.728524
C      0.557785    0.463566   -0.940721
F      2.031083    2.287016   -0.397782
O      3.815870   -0.012810   -1.777531
O     -0.563810   -1.204688    0.518642
O     -0.455912    0.795840   -1.791890
O     -2.858492    0.227866   -0.382726
Si    -2.205101   -0.865806    0.679120
Si    -1.850415    1.425644   -1.026809
H     -2.824844   -4.111870    1.892316
H     -1.352623   -3.301194    1.310064
H     -2.243701   -4.443953    0.192836
H     -3.662424   -1.784741   -1.522126
H     -4.496121   -3.270924   -1.032300
H     -2.765296   -3.400479   -1.412697
H     -0.659911   -1.572474    2.821312
H     -2.157380   -2.353715    3.381892
H     -1.508759   -1.010594    4.341734
H     -4.118132   -1.667726    3.063343
H     -4.631080   -0.140997    2.173207
H     -4.061683   -0.077219    3.856021
H     -0.983076    2.795252   -3.325719
H     -2.035612    4.231208   -2.956275
H     -2.435559    3.123696   -4.281264
H     -3.903957    4.025092   -1.686272
H     -4.900938    2.784958   -2.566947
H     -4.421939    2.419828   -0.906633
H     -3.301558    2.143947    1.184408
H     -3.210771    3.838751    0.595778
H     -2.322023    3.430475    2.063137
H     -0.380940    4.616172    0.308828
H     -1.874555    4.704427   -0.619210
H     -0.350629    3.886300   -1.294493
H      3.547300   -2.115824    0.786091
H      1.922850   -2.988036    0.328272
H      7.187050   -2.676964    2.475019
H      6.497514   -0.362729    2.925315
H      6.929386   -3.599769    0.267023
H      5.564324    0.998845    1.164472
H      5.980825   -2.246939   -1.546340
H      5.169390    1.385790   -1.136574
H      5.761275    0.131276   -2.332643
H     -1.046012   -1.726248   -1.360004
H      0.090822   -2.877375   -0.555894
H     -4.086163   -2.378546    1.035314
H     -2.169087    0.641575    2.671777
H     -3.178804    1.412794   -3.042283
H     -0.574023    2.400514    0.884538
H      1.040314   -1.157733   -2.332199
H      1.982491    1.413984   -2.229115
H      3.473040    0.514351    0.149791
H      0.260390    0.490450    0.136682
