36

C     -0.236782    1.074630   -0.941695
C      4.012825    1.602571   -0.184715
C      3.774821    0.630163   -1.133565
C      3.485851    1.457962    1.070955
C      3.018052   -0.476021   -0.832151
C      2.731236    0.347543    1.359353
C     -2.935492    0.599188   -1.505056
C      1.654792   -1.837754    0.778376
C     -0.874010    0.098015   -0.348362
C      2.468887   -0.650168    0.437011
C     -2.232428   -0.450558   -0.696909
C     -2.799853   -0.618539    0.677960
C     -1.655404   -1.146250    1.492195
C     -0.379486   -0.681640    0.817871
O     -4.220872    0.188999   -1.885282
O     -3.226573    0.628026    1.135633
O     -1.768984   -0.623385    2.783999
O      0.374889   -1.715738    0.346761
H     -0.672692    1.599732   -1.791943
H      0.734531    1.378455   -0.592519
H      4.609109    2.470556   -0.428398
H      4.182463    0.718975   -2.143266
H      3.677716    2.224527    1.806903
H      2.820390   -1.246799   -1.558648
H      2.333363    0.267070    2.363863
H     -2.374600    0.711363   -2.471124
H     -2.916641    1.564837   -1.001058
H      1.758653   -2.108240    1.851488
H      2.113206   -2.689771    0.193292
H     -2.180459   -1.415960   -1.198245
H     -3.687823   -1.279340    0.704150
H     -1.733782   -2.250296    1.535528
H      0.122228    0.007825    1.504919
H     -4.785080    0.957088   -2.093919
H     -2.489114    1.118642    1.603793
H     -2.702941   -0.455709    3.047900
