55

C     -0.267318   -1.688697   -1.350161
C     -4.656045   -0.842053   -2.666898
C     -3.846964    1.337610   -1.739280
C     -5.326837   -0.101124   -0.449177
C      0.318729    1.158249    4.097680
C      1.336661   -1.021708    4.473392
C      6.510529   -0.618761   -2.230799
C      5.417519   -1.140647   -2.909087
C      6.223511    0.299354   -1.242599
C      4.121519   -0.763434   -2.612354
C      4.937493    0.693237   -0.926504
C      2.492842    0.585910   -1.271803
C     -2.582303   -0.154041    0.187425
C     -0.312570   -0.860413   -0.312538
C      3.871255    0.157740   -1.617330
C     -1.366721   -0.867268    0.746213
C      0.665201    0.219838   -0.008601
C     -0.829761   -0.046445    1.877184
C      0.460919    0.567176    1.446819
C     -4.167585   -0.100121   -1.415822
C      0.636228   -0.176634    3.462975
O      1.932351   -0.220727   -0.285898
O     -3.072333   -0.781882   -0.951265
O     -0.489618   -0.806978    2.993364
O      1.385632   -0.012972    2.285654
H      0.541116   -1.604805   -2.067958
H     -0.994911   -2.453649   -1.529677
H     -5.775365   -0.813468   -2.729422
H     -4.270846   -0.353257   -3.581153
H     -4.382346   -1.917115   -2.601590
H     -4.628146    1.750983   -2.432971
H     -3.925595    1.936558   -0.809947
H     -2.846788    1.390563   -2.169706
H     -5.539257   -1.132877   -0.077326
H     -6.232031    0.205725   -1.020125
H     -5.213434    0.596078    0.380305
H     -0.267052    0.947440    5.010496
H     -0.311868    1.802966    3.458027
H      1.232950    1.690826    4.359549
H      1.143494   -2.103773    4.309032
H      2.427199   -0.823726    4.537775
H      0.933719   -0.788248    5.492230
H      7.532332   -0.918365   -2.467244
H      5.624452   -1.859939   -3.684897
H      7.052952    0.727913   -0.691984
H      3.281067   -1.201726   -3.174721
H      4.785455    1.432451   -0.123499
H      1.860673    0.592650   -2.197302
H      2.567195    1.632949   -0.904509
H     -3.375005   -0.224861    0.963166
H     -2.279858    0.884790   -0.026783
H     -1.612652   -1.904324    1.055198
H      0.420584    1.096139   -0.637302
H     -1.555970    0.725437    2.233826
H      0.415601    1.675832    1.547922
