77

C     -4.781836   -0.251602   -1.595437
C     -5.145637    2.136130   -1.330842
C     -2.808140    3.839876    0.539138
C     -3.115912    2.273227    2.487200
C     -3.650513   -3.583121    0.987940
C     -1.242839   -3.964425    1.624059
C     -1.541729   -1.430596   -2.535229
C     -1.195741   -3.560240   -1.457358
C      2.379540    2.731354    0.601362
C      8.974690    0.493789    0.435339
C      8.242132    1.659749    0.345267
C      8.371744   -0.695189    0.084034
C      6.932066    1.657501   -0.085103
C      7.060162   -0.673344   -0.343735
C      4.912530    0.517761   -0.894898
C     -0.460619    1.970445    0.337466
C     -4.078072    1.082555   -1.515779
C     -3.391387    2.550844    1.026598
C     -2.359420   -2.993425    1.444124
C     -1.991875   -2.247208   -1.395242
C      1.914507    1.510975    0.418470
C      6.306011    0.467850   -0.444063
C      0.575806    0.991806    0.844648
C      1.926370   -0.797114    0.073348
C      2.694879    0.434822   -0.268588
C      0.478508   -0.335725    0.129248
O      1.985233   -1.756225   -0.950543
O      4.001318    0.386067    0.151556
O     -1.272680    1.399130   -0.635954
O     -0.234814   -1.274010    0.780355
O     -2.936255   -0.346495    0.710589
Si    -2.865383    1.123920   -0.068633
Si    -1.838095   -1.549821    0.290935
H     -4.411732   -0.815401   -2.476523
H     -4.470061   -0.835692   -0.693064
H     -5.859860   -0.116140   -1.579904
H     -4.759199    3.149850   -1.240610
H     -5.873702    2.025925   -2.181822
H     -5.748550    1.803884   -0.434762
H     -3.597840    4.600974    0.265534
H     -2.204533    3.717737   -0.391070
H     -2.218751    4.378727    1.338555
H     -2.631844    1.311129    2.674719
H     -4.052909    2.271926    3.109574
H     -2.533083    3.149405    2.879856
H     -4.514288   -2.956562    1.352968
H     -3.766955   -4.559250    1.499113
H     -3.761891   -3.742407   -0.083604
H     -1.266750   -4.847598    0.970402
H     -1.325505   -4.389705    2.668904
H     -0.276389   -3.419101    1.625152
H     -1.855422   -0.397644   -2.599823
H     -1.969075   -1.919112   -3.465851
H     -0.431749   -1.586154   -2.680011
H     -0.333753   -3.490986   -0.766687
H     -0.718944   -3.682926   -2.475593
H     -1.829567   -4.438918   -1.312992
H      1.767706    3.462279    1.104227
H      3.355665    3.025661    0.263975
H     10.016948    0.495343    0.777603
H      8.755007    2.574852    0.631823
H      8.928620   -1.629656    0.146186
H      6.427235    2.606655   -0.128257
H      6.607543   -1.614121   -0.613970
H      4.728143   -0.244991   -1.687324
H      4.725256    1.514987   -1.344716
H      0.021218    2.859368   -0.114776
H     -1.006496    2.318679    1.228722
H     -3.529675    1.313330   -2.463943
H     -4.494593    2.634939    0.935406
H     -2.562507   -2.547739    2.464997
H     -3.042431   -2.558311   -1.566051
H      0.580413    0.878595    1.933923
H      2.221048   -1.247023    1.051613
H      2.682143    0.569815   -1.370761
H      0.185693   -0.108508   -0.907171
H      2.200868   -1.285379   -1.774465
