65

C      7.258653    1.069462    1.822694
C      6.133037    3.216239    1.302188
C     -4.176539    2.605577    2.567375
C     -5.807221   -1.641799   -0.669011
C     -3.172492   -4.868459   -3.110647
C      4.823663   -0.059999   -1.591366
C      3.558408   -0.547300   -1.688676
C      5.235439    0.549634   -0.430311
C     -1.198496    0.903783    1.305831
C     -1.962428    1.604034    2.418762
C      1.356461   -2.195168   -1.685293
C     -3.309064   -2.550816   -1.491036
C     -3.984525    2.246761   -0.382090
C      6.060493    1.907398    2.078865
C     -2.244403    0.573725    0.324529
C      2.628074   -0.452017   -0.632278
C      4.388655    0.672281    0.635758
C     -3.465851    1.269187    0.699855
C      0.225187   -2.872782   -2.029440
C      1.331924   -1.041428   -0.890497
C     -3.371522   -1.408951   -0.697831
C     -2.117036   -3.045512   -1.929215
C     -2.231313   -0.730233   -0.324962
C     -0.973543   -2.368238   -1.556364
C      3.079079    0.148527    0.485640
C     -0.982480   -1.217942   -0.763829
Cl     2.060195    0.275655    1.919505
N      4.796763    1.256556    1.840396
N     -3.050673    2.222519    1.758474
O     -4.434656    1.655710   -1.512567
O      0.247931   -3.911169   -2.742784
O     -4.608083   -0.949683   -0.272190
O     -2.016331   -4.171464   -2.714699
O      0.175243   -0.616878   -0.468897
H      7.906542    1.515124    1.051553
H      7.862682    0.963011    2.787591
H      7.006140    0.016641    1.529846
H      6.578218    3.994554    1.991376
H      6.755497    3.102660    0.405441
H      5.103611    3.545736    1.007180
H     -4.052027    2.397132    3.625464
H     -4.254789    3.732787    2.454668
H     -5.141747    2.214310    2.175301
H     -5.877857   -1.760995   -1.763711
H     -5.840060   -2.654881   -0.227305
H     -6.696381   -1.064420   -0.320397
H     -3.801047   -5.023828   -2.194498
H     -2.842005   -5.865538   -3.452701
H     -3.764130   -4.306924   -3.869867
H      5.517218   -0.152764   -2.426278
H      3.270867   -1.004145   -2.616617
H      6.247806    0.941850   -0.426839
H     -0.365512    1.540071    0.945871
H     -0.816853   -0.036815    1.837231
H     -1.289892    2.422123    2.796697
H     -2.252237    0.928970    3.251313
H      2.311490   -2.565920   -2.033964
H     -4.240804   -3.019747   -1.751769
H     -4.818926    2.835292    0.052862
H     -3.156826    2.985179   -0.557791
H      6.087536    2.196137    3.172242
H     -1.873430    1.252517   -0.614419
H     -4.278885    0.653017    1.067777
H      4.116710    1.213639    2.654159
H     -3.653457    1.478018   -2.126306
