52

C     -3.680389   -2.822295   -0.126649
C      5.470705   -0.672226   -1.002138
C      4.445495    0.268633   -0.877449
C      5.289565   -1.967735   -0.617531
C     -0.684591   -1.238764    1.140738
C     -1.691612   -2.425996    1.208563
C      3.057473   -1.371064    0.015059
C     -1.964767    3.505836    0.544374
C      2.465364    2.252838   -0.412654
C     -3.416084   -0.260857   -1.126541
C      3.212241   -0.061629   -0.364597
C      4.068382   -2.337578   -0.099586
C     -1.732075   -0.193724    0.758865
C     -2.234613   -0.906093   -0.512319
C     -2.258967    2.182580    0.743936
C     -0.693804    3.892685    0.195771
C      1.547932    3.271050   -0.289048
C      2.133724    0.924684   -0.203328
C     -1.296795    1.155781    0.604644
C      0.256900    2.905823    0.059787
C     -0.031190    1.561684    0.259339
N     -2.399782   -2.237099   -0.028126
N      3.875945   -3.679090    0.295520
O     -3.111518    1.019474   -1.634296
O     -3.573054    1.868948    1.108027
O     -0.328530    5.209010   -0.022095
O      1.819280    4.476839   -0.472018
O      2.693881   -4.149816    0.815926
O      4.797848   -4.504308    0.181018
O      0.901610    0.624285    0.124667
Cl     0.689946    0.000000    0.000000
H     -3.566691   -3.907037    0.173307
H     -4.468820   -2.414944    0.535166
H     -3.963006   -2.868100   -1.200058
H      6.439383   -0.383036   -1.414914
H      4.676299    1.253311   -1.212549
H      6.097458   -2.688948   -0.720646
H     -0.058539   -1.510535    0.303059
H     -0.182527   -1.066210    2.073838
H     -1.112793   -3.366654    1.210727
H     -2.295830   -2.283821    2.106070
H      2.116767   -1.687709    0.439459
H     -2.694710    4.298258    0.646652
H      3.470805    2.569579   -0.681387
H     -3.809697   -0.811033   -2.012926
H     -4.292098   -0.238797   -0.425823
H     -2.535586   -0.293206    1.495740
H     -1.399231   -0.863360   -1.253429
H     -3.995536    1.508055   -1.641338
H     -4.285875    2.553499    1.219096
H     -1.078346    5.908815    0.092097
H     -0.689946    0.000000    0.000000
