52

C     -4.366623    2.502774   -0.231064
C      5.487400    0.905139   -0.498985
C      4.450108    0.348956    0.179747
C     -0.949299    1.161713   -0.455288
C     -1.966392    2.324873   -0.243706
C      4.116947    0.981132   -2.413950
C     -1.855255   -2.545403    2.504270
C      2.632228   -1.493323    1.425833
C     -4.067156   -0.281058   -1.328522
C      5.325385    1.234304   -1.834098
C      3.206642    0.076396   -0.373826
C     -1.813533   -0.039557   -0.234076
C      3.057057    0.403252   -1.695526
C     -3.225226    0.389316   -0.228668
C     -2.309776   -1.679038    1.537088
C     -0.511887   -2.749685    2.771663
C      1.775095   -2.213579    2.227100
C      2.180555   -0.621439    0.436909
C     -1.381511   -0.982338    0.800132
C      0.423499   -2.037094    2.010651
C     -0.000527   -1.159173    1.025946
Cl     1.578305    0.008454   -2.546473
N     -3.209522    1.809295   -0.691199
N      6.416698    1.821220   -2.507887
O     -3.358239   -0.034188   -2.526880
O     -3.674207   -1.538233    1.333044
O     -0.150032   -3.622977    3.751553
O      2.207700   -2.987337    3.106345
O      6.277768    2.184033   -3.815691
O      7.488179    2.006494   -1.932414
O      0.902054   -0.508213    0.299909
Cl     0.690627    0.000000    0.000000
H     -4.151062    3.411463    0.368195
H     -4.971679    2.855539   -1.103300
H     -5.057578    1.836635    0.357880
H      6.452702    1.098807   -0.002395
H      4.609609    0.107660    1.214872
H     -0.603326    1.314453   -1.489952
H     -0.136801    1.303183    0.240853
H     -1.887820    2.615344    0.800647
H     -1.688042    3.174314   -0.889078
H      3.963084    1.232148   -3.453154
H     -2.567191   -3.105740    3.099720
H      3.690414   -1.607061    1.564668
H     -5.042473    0.238806   -1.420594
H     -4.139692   -1.355503   -1.216499
H     -1.710226   -0.596196   -1.270104
H     -3.798934    0.396027    0.678212
H     -3.944570    0.107304   -3.284701
H     -4.370478   -2.025580    1.834937
H      0.667631   -3.925541    4.117851
H     -0.690627    0.000000    0.000000
