52

C     -1.831249    2.214533   -3.092186
C      4.213821    1.104925    3.347164
C      3.291716    0.124834    2.961460
C      4.019670    2.376138    2.880610
C     -1.253280    1.379529   -0.362887
C     -0.290847    2.058034   -1.314791
C      2.053583    1.649343    1.704168
C     -2.346259   -3.415546   -0.073048
C      1.450426   -1.929392    2.391249
C     -1.264746   -0.727653   -3.409849
C      2.222480    0.365644    2.155536
C      2.952493    2.652749    2.066651
C     -1.723000    0.142432   -1.047109
C     -0.861016    0.147894   -2.297268
C     -2.480965   -2.169796   -0.639731
C     -1.328524   -3.696562    0.839222
C      0.556341   -2.932723    2.054131
C      1.260319   -0.690478    1.781306
C     -1.600922   -1.125422   -0.329102
C     -0.455406   -2.683735    1.159530
C     -0.601594   -1.406026    0.570205
N     -0.679355    1.520049   -2.630869
N      2.751541    3.968829    1.583805
O     -2.442900   -0.396287   -4.057334
O     -3.533145   -2.040359   -1.509324
O     -1.241170   -4.938798    1.366000
O      0.763459   -4.030321    2.625805
O      3.637119    4.948010    1.946426
O      1.772028    4.189445    0.841491
O      0.283514   -0.530672    0.947711
Cl     0.691483    0.000000    0.000000
H     -2.780547    1.931377   -2.602093
H     -1.691414    3.307973   -2.843492
H     -1.974059    2.184779   -4.190588
H      5.055218    0.849455    4.000667
H      3.499293   -0.838703    3.351076
H      4.710715    3.160161    3.155989
H     -0.909188    1.199994    0.639434
H     -2.180168    2.085845   -0.291014
H     -0.385070    3.141411   -1.263955
H      0.743889    1.687852   -1.178408
H      1.216773    1.855795    1.080455
H     -3.021527   -4.238121   -0.306746
H      2.230487   -2.115155    3.085188
H     -0.475771   -0.780680   -4.219644
H     -1.355909   -1.790881   -3.074340
H     -2.765198    0.275408   -1.419874
H      0.181305   -0.211557   -1.985729
H     -2.919484   -1.214156   -4.406176
H     -3.799390   -1.224692   -1.971909
H     -0.674086   -5.394722    1.982183
H     -0.691483    0.000000    0.000000
