48

C     -4.065755    1.516158    1.555362
C      3.437317    3.254773   -0.004537
C      2.867170    2.040611   -0.231188
C      4.494561    3.361746    0.863612
C     -0.752002    0.970567    0.170202
C     -1.806020    1.919623    0.785902
C     -0.921478   -3.684802   -0.820449
C      3.274358   -1.581525    0.187157
C     -3.880893    0.550797   -0.994929
C     -1.556198   -0.057339   -0.593026
C      3.308718    0.862473    0.388216
C      4.966264    2.254660    1.493556
C     -2.894167    0.018995    0.041593
C     -1.592067   -2.485633   -0.843141
C      0.421745   -3.745372   -0.560221
C      2.534136   -2.735282   -0.056081
C      2.581218   -0.396219    0.154267
C     -0.851106   -1.329522   -0.590071
C      1.184378   -2.621608   -0.308476
C      4.361231    1.010283    1.245521
C      0.526438   -1.393292   -0.327787
Cl     4.973561   -0.358612    2.142167
I      6.582448    2.420364    2.825685
N     -2.821121    0.991732    1.118771
O     -3.403596    1.789907   -1.462727
O     -2.950807   -2.408758   -1.106548
O      1.112247   -4.971185   -0.533962
O      3.120948   -3.867189   -0.039654
O      1.278344   -0.361061   -0.094834
H     -4.926357    0.855989    1.414153
H     -4.243904    2.572667    1.203283
H     -3.985666    1.630118    2.681312
H      3.083053    4.166645   -0.494822
H      2.060866    1.922505   -0.926477
H      4.967299    4.331410    1.059408
H     -0.305240    0.499471    1.097333
H     -0.054202    1.516440   -0.433832
H     -2.061870    2.721341    0.103302
H     -1.361251    2.332996    1.743093
H     -1.500913   -4.584877   -1.017261
H      4.336272   -1.664893    0.355230
H     -4.880688    0.733239   -0.593315
H     -3.967998   -0.082590   -1.887122
H     -1.577283    0.310133   -1.661066
H     -3.262289   -0.903504    0.529422
H     -2.927998    1.719674   -2.316272
H     -3.498860   -3.234637   -1.289871
H      0.577156   -5.807419   -0.715336
