50

C     -3.918567   -1.652856    1.994591
C      3.065333    0.999148    3.486910
C      2.563955    0.524418    2.284075
C      4.204660    1.769834    3.485333
C     -0.751561   -0.125867    1.020979
C     -1.833220   -0.456348    2.077257
C     -0.582512   -1.113134   -3.718543
C      3.337707    0.111467   -1.332503
C     -3.995975    0.182074    0.155917
C     -1.539448   -0.156473   -0.228244
C      3.176752    0.801856    1.054553
C      4.836111    2.067410    2.321288
C     -2.820323   -0.779283    0.027817
C     -1.366938   -0.879775   -2.584921
C      0.772490   -0.927192   -3.679545
C      2.756589   -0.317166   -2.504790
C      2.568818    0.343905   -0.216369
C     -0.767367   -0.465036   -1.439435
C      1.394991   -0.505630   -2.524455
C      4.304824    1.574597    1.118070
C      0.623921   -0.266511   -1.378092
Cl     5.127819    2.076352   -0.354720
I      6.595140    3.248274    2.260355
N     -2.674341   -1.372302    1.361432
O     -4.297382    0.866827   -1.005066
O     -2.733628   -1.072335   -2.645166
O      1.540049   -1.163567   -4.812369
O      3.464278   -0.524721   -3.515260
O      1.273017    0.135319   -0.325514
Cl     0.691425    0.000000    0.000000
H     -4.326594   -0.689053    2.385681
H     -4.636855   -2.196083    1.385339
H     -3.673382   -2.245211    2.921725
H      2.579637    0.777635    4.432224
H      1.683954   -0.093587    2.298835
H      4.613022    2.149802    4.414318
H     -0.265692    0.815648    1.242074
H     -0.037764   -0.999288    1.042160
H     -2.378375    0.483765    2.241434
H     -1.382736   -0.874421    2.982436
H     -1.118173   -1.444637   -4.610794
H      4.407054    0.212005   -1.326712
H     -3.903926    0.835024    1.020198
H     -4.909287   -0.458596    0.357857
H     -1.797881    0.980120   -0.400219
H     -3.112629   -1.667546   -0.590517
H     -3.968058    1.792916   -1.013873
H     -3.201804   -1.379469   -3.485349
H      1.104293   -1.474037   -5.680397
H     -0.691425    0.000000    0.000000
