61

C      6.690594    1.755048   -0.268632
C      7.352520    0.280223   -2.170318
C     -5.149977    2.289022   -0.891111
C      2.187890    2.179687   -0.501144
C      1.344621    1.230251    0.016484
C      3.455430    1.769314   -0.846274
C     -2.211351    0.367505   -1.364585
C     -3.060856    1.569604   -1.840282
C     -3.498520   -3.272514    1.650275
C      1.108881   -2.108519    1.461275
C     -4.501417    0.944776    1.468484
C      6.205386    0.971572   -1.480185
C     -3.226380   -0.215397   -0.390306
C      1.704909   -0.091987    0.201177
C      3.867479    0.469661   -0.684117
C     -3.491670    1.065666    0.397140
C     -3.786387   -2.190139    0.877921
C     -2.175412   -3.583102    2.027563
C      0.130551   -2.981741    1.918699
C      0.696032   -1.049379    0.691545
C     -2.784846   -1.322317    0.414368
C     -1.179335   -2.746180    1.585621
C      2.967969   -0.472686   -0.150893
C     -1.512158   -1.627337    0.785767
Cl     3.570936   -2.137008   -0.046203
N      5.175271    0.049649   -1.066796
N     -3.778276    1.998882   -0.657575
O     -4.623506    2.209775    2.080316
O     -5.115866   -1.967478    0.554300
O     -1.934965   -4.664711    2.789024
O      0.493640   -3.951959    2.618939
O     -0.560617   -0.856465    0.393845
Cl     0.683738    0.000000    0.000000
H      6.802192    1.046298    0.602702
H      7.668035    2.253075   -0.474307
H      6.002488    2.534488    0.072086
H      6.992512   -0.604023   -2.765899
H      7.889168    0.953048   -2.875722
H      8.138923   -0.048043   -1.443693
H     -5.434578    3.325148   -0.564910
H     -5.286720    2.299585   -2.015555
H     -5.874450    1.537989   -0.517889
H      1.842316    3.213780   -0.625590
H      0.344652    1.594857    0.312385
H      4.109269    2.543351   -1.272018
H     -2.025041   -0.320149   -2.211246
H     -1.356291    0.805748   -0.889285
H     -2.427141    2.344969   -2.267766
H     -3.796069    1.152767   -2.547676
H     -4.269033   -3.954975    2.015617
H      2.152927   -2.278026    1.752586
H     -5.492021    0.586624    1.184297
H     -4.042855    0.300217    2.275639
H      5.745862    1.695257   -2.210582
H     -4.146509   -0.413650   -0.971832
H     -2.545659    1.435551    0.863092
H      5.449996   -0.961904   -1.064650
H     -3.760818    2.686994    2.042728
H     -5.865410   -2.548019    0.848025
H     -1.176310   -5.092675    3.175143
H     -0.683738    0.000000    0.000000
