57

C     -3.588908   -3.271301   -0.297884
C     -4.508874    2.369875    0.525877
C     -1.030597    5.675992   -0.164724
C      3.815797   -2.975955    1.003360
C      2.984901   -1.877627    0.944631
C      5.030043   -2.916487    0.394933
C     -0.680450   -1.709626    1.057137
C     -1.631159   -2.929197    1.006612
C      2.748764    1.667734    0.035062
C     -1.782488    3.029713    0.221497
C     -3.343593   -0.830958   -1.345456
C     -1.720695   -0.668721    0.611565
C      3.320938   -0.709813    0.294610
C      5.401709   -1.788273   -0.255787
C     -2.148418   -1.361685   -0.662847
C      1.787071    2.689398   -0.017772
C      2.364653    0.364548    0.226534
C     -2.129700    1.730013    0.408252
C     -0.474608    3.355662    0.077511
C     -1.201486    0.672726    0.463345
C      0.471033    2.325122    0.129624
C      4.545579   -0.676738   -0.309744
C      0.120017    1.006557    0.320554
C      6.741825   -1.717960   -0.929203
Cl     5.155412    0.670564   -1.251422
F      7.403387   -2.905351   -0.743410
F      7.483910   -0.675459   -0.455458
F      6.514350   -1.614041   -2.307388
N     -2.260456   -2.752753   -0.282636
O     -3.557128   -1.600660   -2.526054
O      2.124698    3.888025   -0.193247
O     -3.475908    1.441169    0.556805
O     -0.055988    4.664753   -0.117370
O      1.067622    0.134061    0.356226
H     -3.566857   -4.239258    0.280921
H     -3.960145   -3.553911   -1.302988
H     -4.344776   -2.639784    0.227569
H     -5.438170    1.820570    0.205778
H     -4.721107    2.814409    1.530186
H     -4.383522    3.200599   -0.192323
H     -1.754579    5.402336   -0.943929
H     -1.587841    5.720384    0.792172
H     -0.561831    6.656656   -0.407513
H      3.506961   -3.853459    1.516421
H      2.047408   -1.989924    1.469264
H      5.723316   -3.768154    0.417812
H     -0.274934   -1.527733    2.040801
H      0.036203   -1.914482    0.250366
H     -2.346544   -2.788589    1.830908
H     -1.090962   -3.865882    1.131043
H      3.777496    1.971629   -0.047748
H     -2.513650    3.827851    0.183827
H     -4.262793   -0.748944   -0.771832
H     -3.104961    0.184082   -1.764331
H     -2.524529   -0.706954    1.363480
H     -1.291087   -1.308339   -1.385480
H     -2.854353   -1.396413   -3.198139
