65

C      6.513907    2.115595   -1.475485
C      6.758796    2.743810    0.897881
C     -3.710836    3.258613   -1.299503
C     -5.691505   -1.056115    1.616646
C     -4.018599   -5.415923    0.325390
C      4.512521   -1.667661   -2.034636
C      3.216965   -1.988037   -1.740589
C      5.100923   -0.595957   -1.374711
C     -0.844014    1.480899    0.111940
C     -1.435622    2.614162   -0.751219
C      0.898227   -3.152874   -0.709833
C     -3.587998   -2.605491    0.699582
C     -3.179756    2.808384    1.488186
C      6.352474    1.648241   -0.057196
C     -1.986084    0.793639    0.755628
C      2.457487   -1.282374   -0.801826
C      4.399549    0.122057   -0.450392
C     -3.152622    1.671099    0.446586
C     -0.325763   -3.694251   -0.457460
C      1.106629   -1.769441   -0.521380
C     -3.364235   -1.274191    0.865913
C     -2.578727   -3.408288    0.254063
C     -2.140536   -0.644422    0.605800
C     -1.352177   -2.866080   -0.017378
C      3.077733   -0.240378   -0.178068
C     -1.122099   -1.502079    0.157800
Cl     2.286504    0.653915    1.093675
N      5.000370    1.213294    0.216104
N     -2.825160    2.249694   -0.854678
O     -4.120083    3.753018    1.167982
O     -0.592509   -4.915860   -0.599082
O     -4.423687   -0.504090    1.329921
O     -2.784148   -4.774912    0.072357
O      0.091765   -1.080004   -0.111075
H      6.602406    3.238159   -1.447848
H      5.632005    1.871630   -2.116247
H      7.394308    1.653084   -1.937470
H      6.401433    3.719344    0.515259
H      7.869898    2.775591    0.976032
H      6.297498    2.563151    1.872528
H     -3.453460    4.284865   -1.002418
H     -4.746716    3.008293   -0.927299
H     -3.816256    3.142267   -2.418025
H     -5.594148   -1.823493    2.437287
H     -6.381157   -0.232129    1.907189
H     -6.060601   -1.546914    0.673991
H     -4.746791   -5.252573   -0.506582
H     -3.851981   -6.510084    0.386006
H     -4.411239   -5.014971    1.281446
H      5.069032   -2.244512   -2.774279
H      2.772499   -2.811613   -2.276490
H      6.126693   -0.389149   -1.640737
H     -0.240368    2.060539    0.879091
H     -0.158307    0.902662   -0.484059
H     -1.227473    3.605322   -0.364577
H     -0.974197    2.506910   -1.751101
H      1.697406   -3.806054   -1.041109
H     -4.584759   -3.016660    0.926577
H     -2.143287    3.251791    1.422011
H     -3.288239    2.403337    2.502144
H      7.082122    0.812081    0.107812
H     -1.807028    0.934054    1.897034
H     -4.120103    1.239078    0.408072
H      4.457746    1.733939    0.933999
H     -4.334624    4.254062    2.006060
