48

C     -2.790950   -1.174294    2.093536
C      5.583723   -1.525862   -0.032094
C      4.587827   -0.635062   -0.205433
C      5.334168   -2.672481    0.710626
C     -0.927722   -1.219812    0.080814
C     -1.959498   -2.320045    0.237661
C     -1.296362    3.514489   -0.774602
C      2.970230    1.573241    0.072063
C     -3.962501   -0.887927   -1.336242
C     -1.730561   -0.139899   -0.590124
C      3.279396   -0.782478    0.323951
C      4.096664   -2.852442    1.236228
C     -3.102806   -0.359191   -0.172050
C     -1.894027    2.291194   -0.762352
C      0.091097    3.665216   -0.559397
C      2.241004    2.715130   -0.136328
C      2.341981    0.307415    0.087372
C     -1.106151    1.173686   -0.529725
C      0.885606    2.565201   -0.328495
C      3.064118   -1.909055    1.047450
C      0.266339    1.303880   -0.315011
Cl     1.591454   -2.260003    1.876108
I      3.755860   -4.611198    2.352053
N     -3.077102   -1.542832    0.746430
O     -5.227482   -1.233406   -0.825453
O     -3.252559    2.145960   -0.975194
O      0.588514    4.927794   -0.591345
O      2.806962    3.840655   -0.147333
O      1.064876    0.258682   -0.099144
H     -2.135858   -1.969919    2.555200
H     -2.229234   -0.234278    2.230810
H     -3.711019   -1.169718    2.750086
H      6.590446   -1.393885   -0.451437
H      4.775334    0.240037   -0.790112
H      6.136960   -3.375829    0.839381
H     -0.632846   -0.847754    1.104728
H     -0.116794   -1.625934   -0.512850
H     -2.142683   -2.792893   -0.721100
H     -1.675260   -3.033438    1.041562
H     -1.908461    4.400345   -0.956873
H      4.021598    1.695022    0.231715
H     -4.121612   -0.085117   -2.067747
H     -3.502327   -1.784046   -1.806457
H     -1.670639   -0.427042   -1.701803
H     -3.683873    0.414842    0.307629
H     -5.804060   -0.408161   -0.761317
H     -3.856550    2.928914   -1.148439
H      1.444780    5.312300   -0.482509
