54

C     -4.045690   -1.272302   -0.794833
C     -3.599503    2.541390    1.348328
C     -0.045697    5.657503   -0.373211
C      5.691488   -2.201800   -1.375214
C      4.876173   -1.083638   -1.285630
C      5.235778   -3.389058   -0.853237
C     -0.438870   -1.737692   -0.042020
C     -1.684604   -1.905312   -0.994357
C      3.215749   -2.343993   -0.180564
C      3.215811    1.301510   -0.906804
C     -1.020607    2.960436    0.365395
C     -2.451946   -2.495435    1.744086
C      3.641573   -1.142567   -0.694184
C      4.006833   -3.488529   -0.253397
C     -0.986960   -0.724663    0.918995
C     -2.397475   -1.127177    1.012319
C      2.359188    2.375639   -0.762269
C      2.781437    0.039979   -0.572082
C     -1.448899    1.708865    0.690191
C      0.226108    3.211010   -0.119841
C     -0.596458    0.608525    0.530785
C      1.082897    2.155825   -0.283398
C      0.681973    0.859006    0.041716
I      3.405947   -5.342461    0.506035
N     -2.758011   -1.308131   -0.322895
O     -3.776284   -2.984215    1.678368
O      2.702541    3.554009   -1.051512
O     -2.709165    1.459589    1.178025
O      0.679669    4.468657   -0.457412
O      1.579423   -0.080232   -0.135859
H     -4.580171   -0.354579   -0.391183
H     -4.645229   -2.128774   -0.403629
H     -4.161721   -1.208244   -1.911822
H     -4.622344    2.143880    1.552950
H     -3.266378    3.189999    2.182180
H     -3.630238    3.179097    0.423641
H      0.524096    6.451145    0.176512
H     -0.232010    6.069117   -1.398502
H     -1.001455    5.562545    0.141857
H      6.677177   -2.118032   -1.862523
H      5.227168   -0.156527   -1.695509
H      5.891217   -4.258865   -0.934836
H      0.394409   -1.461540   -0.673577
H     -0.246588   -2.741749    0.397727
H     -1.761615   -2.942480   -1.312193
H     -1.415267   -1.244621   -1.884870
H      2.271867   -2.473863    0.310565
H      4.196863    1.469279   -1.269088
H     -1.714498    3.778918    0.507682
H     -1.780092   -3.225203    1.317291
H     -2.227105   -2.356677    2.820013
H     -0.516752   -0.932110    1.964559
H     -3.080732   -0.522939    1.632548
H     -3.723022   -3.992518    1.754682
