50

C     -4.086999    2.288699    0.554606
C      5.699051    0.787198    0.889562
C      4.600849   -0.011521    0.718592
C      5.708791    2.039133    0.345235
C     -0.915783    1.665372   -0.639193
C     -1.967267    2.738392   -0.276613
C     -1.656746   -3.226883   -0.798820
C      2.830917   -1.899995   -0.230009
C     -3.187022   -0.141571    1.588385
C     -1.749853    0.448546   -0.437953
C      3.459874    0.395162   -0.002780
C      4.637459    2.488211   -0.362281
C     -2.253320    0.786544    0.946080
C     -2.075153   -1.921666   -0.742665
C     -0.326486   -3.531652   -0.685908
C      1.888385   -2.871426   -0.404566
C      2.379680   -0.564576   -0.178826
C     -1.171004   -0.851941   -0.568577
C      0.566600   -2.516442   -0.519343
C      3.533474    1.656275   -0.523677
C      0.148568   -1.187682   -0.462147
Br     4.629534    4.249947   -1.142181
Cl     2.245002    2.271331   -1.522956
N     -2.674798    2.139924    0.839497
O     -3.377110    0.342282    2.914047
O     -3.434027   -1.682664   -0.866891
O      0.127395   -4.864888   -0.738944
O      2.268405   -4.080299   -0.454987
O      1.104354   -0.300786   -0.296077
Cl     0.691327    0.000000    0.000000
H     -4.269472    3.369836    0.366625
H     -4.745321    1.972693    1.358547
H     -4.291717    1.779268   -0.419975
H      6.542956    0.437821    1.443424
H      4.596661   -1.001714    1.174289
H      6.570520    2.685970    0.476383
H     -0.590855    1.814021   -1.683929
H     -0.138477    1.803355    0.134394
H     -2.585635    2.898745   -1.159694
H     -1.417899    3.646807    0.024535
H     -2.360798   -4.061343   -0.929335
H      3.868663   -2.163589   -0.150998
H     -2.731663   -1.133186    1.717745
H     -4.217040   -0.147313    1.177041
H     -2.636789    0.550650   -1.137827
H     -1.315969    0.805728    1.585861
H     -2.600423    0.142204    3.475250
H     -4.064584   -2.452718   -0.986023
H     -0.564929   -5.590258   -0.858489
H     -0.691327    0.000000    0.000000
