50

C     -3.777831   -1.762240   -1.566562
C      4.139430   -1.221381   -2.600418
C      3.183538   -1.018295   -1.600646
C      5.441909   -0.857581   -2.465069
C     -0.656619   -0.000451   -1.483333
C     -1.496363   -1.230435   -1.866187
C     -1.504925    1.034496    3.249147
C      2.904073   -0.065184    1.977583
C     -3.702989    1.380526   -1.281396
C     -1.433055    0.726563   -0.450394
C      3.554018   -0.414290   -0.399622
C      5.821932   -0.264610   -1.293352
C     -2.840407    0.272065   -0.695778
C     -1.883497    1.007013    1.933143
C     -0.201370    0.764345    3.593299
C      1.993487    0.219204    2.972497
C      2.565719   -0.102771    0.643970
C     -0.955000    0.704386    0.926450
C      0.705737    0.471036    2.602005
C      4.866273   -0.052951   -0.281325
C      0.378330    0.427375    1.242434
Br     7.630898    0.263919   -1.040869
Cl     5.448215    0.794710    1.139253
N     -2.809753   -0.724996   -1.776363
O     -4.954991    0.871415   -1.540404
O     -3.203904    1.293177    1.592033
O      0.173941    0.793006    4.929769
O      2.303371    0.253488    4.196785
O      1.299847    0.149024    0.359998
Cl     0.688319    0.000000    0.000000
H     -4.114844   -2.134297   -2.556148
H     -3.375367   -2.635811   -1.001428
H     -4.698075   -1.408111   -1.056943
H      3.811206   -1.694946   -3.519956
H      2.170449   -1.349836   -1.757143
H      6.125173   -1.052127   -3.287190
H     -0.622409    0.595049   -2.440538
H      0.304555   -0.415252   -1.229008
H     -1.349204   -1.989317   -1.065356
H     -1.211662   -1.574839   -2.865956
H     -2.262713    1.268281    3.982436
H      3.890807   -0.297900    2.311398
H     -3.655798    2.338323   -0.765243
H     -3.276764    1.615845   -2.317454
H     -1.456921    1.843819   -0.773140
H     -3.258162   -0.248427    0.157232
H     -5.595338    0.988375   -0.800095
H     -3.896022    1.428236    2.316199
H     -0.518925    1.012373    5.651684
H     -0.688319    0.000000    0.000000
