62

C     -4.151318   -2.372937    2.053501
C      5.033156   -3.571512    0.232267
C      6.072520   -2.527932    0.536100
C      3.210152    0.548614   -3.535015
C      2.114647    1.140344   -2.983143
C      3.941759   -0.327325   -2.776723
C     -1.163638   -0.764736    1.445062
C      3.816917   -2.709786   -0.066213
C      5.711641   -1.364174   -0.325845
C     -1.873802   -2.128817    1.652251
C     -3.446715    3.631088    0.902557
C      0.417660    2.957221   -1.728847
C     -4.575371   -0.121775    0.363246
C     -2.287955    0.181765    1.505896
C      1.676778    0.910398   -1.667475
C      3.583352   -0.605604   -1.485012
C     -3.239276   -0.655930    0.599948
C     -3.310381    2.336948    1.422783
C     -2.561317    4.120005   -0.014337
C     -0.602169    3.776552   -1.349101
C      0.542927    1.661194   -1.190866
C     -2.249477    1.507776    1.003332
C     -1.501987    3.316713   -0.437652
C      2.447967    0.031057   -0.961843
C     -1.367501    2.034144    0.079326
Cl     2.097165   -0.269885    0.749838
N     -3.180401   -1.987492    1.086554
N      4.319961   -1.509514   -0.672871
O     -5.164836   -0.967142   -0.632557
O     -4.255560    1.968416    2.344996
O     -2.643280    5.388291   -0.566849
O     -0.762504    4.944551   -1.795745
O     -0.371666    1.302215   -0.320234
Cl     0.685220    0.000000    0.000000
H     -3.834163   -2.009599    3.072207
H     -4.088245   -3.498497    2.143786
H     -5.187476   -2.152511    1.814628
H      4.850977   -4.265008    1.075832
H      5.314096   -4.090684   -0.702118
H      6.163418   -2.301510    1.604612
H      7.081593   -2.928555    0.228256
H      3.534799    0.736195   -4.548365
H      1.552917    1.808362   -3.593322
H      4.829320   -0.807738   -3.225118
H     -0.660895   -0.913464    0.511857
H     -0.457112   -0.671843    2.264560
H      3.141583   -3.297398   -0.695131
H      3.386083   -2.454965    0.933594
H      6.294589   -1.449603   -1.283224
H      5.956918   -0.379476    0.117018
H     -1.926695   -2.349303    2.740714
H     -1.336907   -2.934954    1.156661
H     -4.254715    4.277300    1.211549
H      1.139420    3.336310   -2.451851
H     -4.587837    0.871124   -0.126963
H     -5.307728   -0.220604    1.197151
H     -2.736091    0.125916    2.498894
H     -2.724943   -0.695352   -0.426882
H     -4.721970   -0.804244   -1.505525
H     -4.341061    1.144177    2.860695
H     -3.357322    6.053191   -0.340845
H     -0.685220    0.000000    0.000000
