48

C     -3.906983    2.289791   -0.916731
C      5.665807    1.498671   -0.529601
C      4.805526    0.406332   -0.639572
C      5.203927    2.700707   -0.039710
C     -0.670082    1.256478    0.344641
C     -1.664475    2.359004   -0.055478
C      3.057432    1.711980    0.218653
C     -1.269713   -3.603523   -0.257932
C      3.079244   -1.856575   -0.724145
C     -3.669369    0.885232    1.336624
C      3.504735    0.509383   -0.267404
C      3.896462    2.831673    0.342895
C     -1.494868    0.041517    0.612565
C     -2.856590    0.405321    0.139697
C     -1.739779   -2.343549    0.117235
C      0.034274   -3.772247   -0.555832
C      2.196838   -2.909681   -0.789911
C      2.573039   -0.622643   -0.345229
C     -0.940224   -1.237928    0.204428
C      0.877528   -2.680376   -0.479099
C      0.393992   -1.419159   -0.099921
I      3.185086    4.657498    1.095466
N     -2.661629    1.583926   -0.743604
O     -3.934569   -0.103643    2.267248
O     -3.074576   -2.293826    0.397460
O      0.530997   -5.013028   -0.933672
O      2.617681   -4.061530   -1.133662
O      1.306547   -0.485638   -0.066482
H     -3.862495    2.826164   -1.886078
H     -4.082896    3.060546   -0.138883
H     -4.747432    1.564348   -1.008078
H      6.698766    1.364057   -0.839134
H      5.231147   -0.502021   -1.033203
H      5.926337    3.512816    0.022056
H      0.009862    1.177535   -0.530295
H     -0.178689    1.677173    1.256566
H     -1.993199    2.929011    0.801874
H     -1.211178    3.039755   -0.827178
H      2.043454    1.852766    0.532302
H     -1.941950   -4.461053   -0.315558
H      4.129326   -2.032082   -0.965178
H     -4.572988    1.442830    1.019966
H     -3.061102    1.646451    1.905602
H     -1.507384   -0.018354    1.775286
H     -3.380554   -0.296375   -0.508228
H     -4.710394   -0.687670    2.010752
H     -3.730039   -3.038199    0.361999
H     -0.104850   -5.791866   -0.978998
