50

C     -4.756824   -0.716573    1.146239
C      5.722674   -1.658791   -0.261687
C      4.878032   -0.564664   -0.478295
C      5.173602   -2.800734    0.220206
C     -1.116001   -0.596113    1.674637
C     -2.569322   -0.674007    2.217483
C      2.981805   -1.764933    0.263052
C     -1.312937    3.377834   -0.940395
C      3.130198    1.740590   -0.939409
C     -2.430719   -2.150643   -0.728723
C      3.535991   -0.600019   -0.225996
C      3.779765   -2.835342    0.478256
C     -1.364235   -0.173844    0.241191
C     -2.655541   -0.746605   -0.127983
C     -1.754146    2.181109   -0.457307
C      0.040353    3.608928   -1.176771
C      2.261996    2.781840   -1.172463
C      2.644871    0.543483   -0.463801
C     -0.892408    1.116941   -0.174506
C      0.924206    2.589393   -0.919556
C      0.463852    1.375911   -0.434211
Br     3.097103   -4.488853    1.172156
N     -3.378432   -1.028326    1.099557
O     -3.655014   -2.729034   -1.006667
O     -3.095509    1.946307   -0.211018
O      0.350359    4.859414   -1.640142
O      2.692020    3.896385   -1.607177
O      1.350683    0.425962   -0.235120
Cl     0.685479    0.000000    0.000000
H     -5.360782   -1.636308    1.052107
H     -5.023694   -0.273324    2.135915
H     -5.067479   -0.023188    0.301033
H      6.774598   -1.599537   -0.447995
H      5.373710    0.331423   -0.871135
H      5.783859   -3.670043    0.404301
H     -0.524641    0.086051    2.273989
H     -0.713447   -1.600853    1.719173
H     -2.845332    0.287421    2.715207
H     -2.679043   -1.461971    2.999880
H      1.914713   -1.784953    0.453862
H     -2.088366    4.146306   -1.124940
H      4.188836    1.900216   -1.142270
H     -2.018611   -2.739215    0.152973
H     -1.690911   -2.134627   -1.560068
H     -0.573848   -0.888192   -0.339263
H     -3.268325   -0.166629   -0.850414
H     -3.626715   -3.726840   -0.897975
H     -3.735111    2.694658   -0.386016
H      1.134164    5.343988   -1.899912
H     -0.685479    0.000000    0.000000
