56

C     -2.129578   -3.711372    0.239713
C     -4.322771    2.827027   -0.039319
C     -0.585203    5.582548    1.909709
C      3.231915   -3.254096   -0.826286
C      2.536315   -2.137289   -0.459394
C      4.601884   -3.246755   -0.960631
C     -0.807983   -1.020719   -1.762475
C     -1.184830   -2.468939   -1.509983
C      2.796257    1.385967    0.722034
C     -1.624287    3.145023    0.630413
C     -3.387651   -1.256734    0.769907
C     -1.665170   -0.284327   -0.799270
C      3.185900   -0.907923   -0.196958
C      5.258509   -2.064709   -0.712052
C     -1.945006   -1.282461    0.343554
C      1.940403    2.449101    1.015647
C      2.344532    0.238765    0.128765
C     -2.023523    1.975496    0.034003
C     -0.302318    3.307900    0.956042
C     -1.094958    0.957903   -0.237643
C      0.615192    2.307276    0.689203
C      4.539593   -0.937389   -0.339992
C      0.217011    1.113310    0.086740
Cl     5.478642    0.509667   -0.095201
N     -1.477914   -2.520694   -0.117533
N      6.684213   -2.016022   -0.848316
O     -4.280942   -1.548766   -0.231731
O      2.343643    3.494851    1.553699
O      7.458357   -1.143201   -0.140411
O      7.259597   -2.802371   -1.656933
O     -3.382653    1.835482   -0.298499
O      0.183726    4.456202    1.559253
O      1.046779    0.162478   -0.164260
H     -2.757287   -4.159139   -0.590913
H     -1.349881   -4.520560    0.406550
H     -2.775816   -3.710290    1.126596
H     -4.527767    2.950558    1.035989
H     -3.919264    3.774470   -0.482888
H     -5.251249    2.545649   -0.592704
H     -0.225740    5.917614    2.920503
H     -1.652414    5.409779    2.010087
H     -0.347052    6.406293    1.200067
H      2.673310   -4.160412   -1.014113
H      1.477650   -2.160822   -0.346833
H      5.153994   -4.126493   -1.251268
H      0.245438   -0.822416   -1.805126
H     -1.162635   -0.821124   -2.844055
H     -2.026114   -2.769533   -2.152512
H     -0.325089   -3.089777   -1.771483
H      3.816862    1.529374    1.018157
H     -2.359282    3.925560    0.840667
H     -3.539753   -1.944839    1.661653
H     -3.612525   -0.267577    1.192022
H     -2.632270   -0.057548   -1.256811
H     -1.355353   -0.962790    1.253382
H     -5.055444   -2.031205    0.201237
