50

C     -3.720489    0.125404    1.973622
C      2.768851    3.270480    1.461327
C      2.105293    2.254168    0.793681
C      4.033756    3.681418    1.045589
C     -2.186595    0.789264   -0.449274
C     -2.667059    1.671482    0.673142
C      3.909281    2.030473   -0.712964
C     -0.982649   -3.226243   -2.194770
C      2.703493   -0.299039   -1.829677
C     -0.766640   -0.723476    2.525426
C      2.667216    1.600713   -0.320998
C      4.584033    3.061213   -0.029876
C     -1.964945   -0.628629    0.232340
C     -1.336448    0.004617    1.432992
C     -1.685762   -2.485563   -1.303462
C      0.306028   -2.881989   -2.596145
C      2.121282   -1.404873   -2.388685
C      1.958763    0.450636   -0.902410
C     -1.130902   -1.315248   -0.733257
C      0.836442   -1.723132   -2.014262
C      0.137029   -0.956910   -1.101033
Cl     6.166317    3.523965   -0.600189
N     -2.468409    0.843991    1.880975
O     -1.543011   -1.609069    3.245141
O     -2.991530   -2.878651   -0.931189
O      1.014774   -3.648208   -3.515499
O      2.755679   -2.121554   -3.240681
O      0.751124    0.111268   -0.588201
Cl     0.683161    0.000000    0.000000
H     -3.677598   -0.831037    2.515415
H     -4.390340    0.799357    2.600790
H     -4.266453    0.026714    1.002884
H      2.323873    3.761346    2.311829
H      1.145445    1.921224    1.095936
H      4.494614    4.484880    1.611980
H     -2.930677    0.681238   -1.260364
H     -1.231589    1.216340   -0.783482
H     -2.043198    2.587816    0.821222
H     -3.762983    1.927351    0.548874
H      4.361804    1.589341   -1.572160
H     -1.402502   -4.133225   -2.643645
H      3.701592   -0.043206   -2.098657
H      0.267628   -1.177965    2.322973
H     -0.456591    0.050256    3.310045
H     -2.878237   -1.154537    0.425985
H     -0.618895    0.794748    1.043379
H     -1.160864   -1.820505    4.167700
H     -3.354283   -3.714458   -1.365651
H      0.504333   -4.482190   -3.866719
H     -0.683161    0.000000    0.000000
