50

C     -4.927541    1.867001   -0.471527
C      5.819393    0.315040   -0.350153
C      4.711499   -0.429480   -0.068692
C     -1.446806    1.734081    0.546138
C     -2.885386    2.353601    0.627971
C      4.439017    2.171199   -0.844800
C     -2.025633   -2.935583    1.262236
C      2.551237   -2.056277    0.627685
C     -2.859806    0.340178   -2.378793
C      5.696093    1.632332   -0.740602
C      3.412004    0.081130   -0.157948
C     -1.714591    0.449560   -0.163735
C      3.315128    1.375271   -0.548287
C     -2.987659    0.589074   -0.864507
C     -2.330094   -1.676494    0.861936
C     -0.703984   -3.425589    1.332439
C      1.567467   -2.941433    1.000565
C      2.259966   -0.769553    0.216856
C     -1.311498   -0.776845    0.485096
C      0.258004   -2.527156    0.962865
C      0.014095   -1.216802    0.538983
Cl     1.743972    2.084746   -0.741213
N     -3.492739    1.957202   -0.634438
N      6.843000    2.427788   -1.001825
O     -4.128844    0.431528   -2.948510
O     -3.669594   -1.322917    0.853863
O     -0.504066   -4.696205    1.736976
O      1.890020   -4.107933    1.364844
O      6.737281    3.740141   -1.375772
O      7.983174    1.939722   -0.895328
O      1.022539   -0.418760    0.194355
H     -5.202414    0.801635   -0.201112
H     -5.308950    2.490436    0.333021
H     -5.421452    2.084035   -1.455969
H      6.819671   -0.145004   -0.261705
H      4.896059   -1.462492    0.225882
H     -0.868159    2.495199    0.010309
H     -1.056756    1.645511    1.569645
H     -3.360159    1.959203    1.512920
H     -2.782152    3.441566    0.686861
H      4.318675    3.200881   -1.144575
H     -2.782113   -3.646382    1.562430
H      3.546460   -2.417208    0.683944
H     -2.267438    1.180301   -2.844310
H     -2.451415   -0.655950   -2.596065
H     -0.866055    0.540006   -1.048410
H     -3.794438   -0.065395   -0.568350
H     -4.601405   -0.400075   -2.603682
H     -4.353303   -1.995007    1.142509
H      0.259697   -5.239827    1.857543
