48

C     -2.832381   -0.134924   -2.291378
C      5.453649    0.911335   -1.534606
C      4.579908    0.053230   -0.853597
C      5.003922    2.111028   -2.026839
C     -0.844479    1.257538   -0.469333
C     -1.841762    1.909701   -1.445962
C      2.823251    1.560199   -1.144084
C     -1.455708   -2.741325    2.270487
C      2.858932   -1.740773    0.572556
C     -3.790197    1.747932    0.624085
C      3.258254    0.356414   -0.645770
C      3.684109    2.428121   -1.826645
C     -1.653185    0.568147    0.580160
C     -3.032487    0.570643    0.017572
C     -1.930094   -1.570699    1.774582
C     -0.121132   -3.129717    2.113370
C      2.036935   -2.614423    1.256060
C      2.347454   -0.564902    0.085014
C     -1.102827   -0.674249    1.069068
C      0.715509   -2.271823    1.427720
C      0.209162   -1.055466    0.916666
Br     3.017140    4.084628   -2.493708
N     -2.903819    0.970542   -1.401312
O     -4.040476    1.619125    1.974981
O     -3.262573   -1.289754    1.990081
O      0.264172   -4.331566    2.649516
O      2.523798   -3.695512    1.699593
O      1.087842   -0.306806    0.284467
H     -2.906470   -1.096744   -1.708908
H     -1.897941   -0.155221   -2.890603
H     -3.722000   -0.173917   -2.988396
H      6.488734    0.652644   -1.686223
H      4.987360   -0.866183   -0.494196
H      5.642958    2.798834   -2.557101
H     -0.277329    2.119340   -0.060634
H     -0.261124    0.585451   -1.127156
H     -1.442508    1.902836   -2.489748
H     -2.124398    2.918228   -1.153058
H      1.802468    1.854638   -1.013816
H     -2.112636   -3.434195    2.820238
H      3.883385   -2.004973    0.440924
H     -4.707785    1.973520    0.037690
H     -3.153077    2.663516    0.535640
H     -1.626709    1.279401    1.497414
H     -3.579953   -0.355690   -0.011555
H     -3.314992    2.017778    2.527822
H     -3.835574   -1.937590    2.495323
H      1.104674   -4.768320    2.653595
