53

C      6.371573   -1.631573   -0.683930
C     -3.361350   -2.767304    1.078310
C      3.329652   -2.154070    1.414391
C      4.585168   -2.322791    0.847780
C      2.547679   -1.086345    1.024488
C     -1.072192   -1.071283   -0.034362
C     -1.966312   -2.160505   -0.659720
C     -2.035324    3.490975   -1.094844
C      2.478831    2.062110   -0.807153
C     -4.274279   -0.381697    1.346807
C      5.019834   -1.440032   -0.075571
C     -2.018953    0.049437    0.332878
C      2.977228   -0.159523    0.069191
C     -3.360301   -0.507045    0.112037
C     -2.462455    2.296409   -0.592779
C     -0.698723    3.716474   -1.274329
C      1.555803    3.043752   -1.147457
C      2.020155    0.873240   -0.302127
C     -1.574864    1.294188   -0.255003
C      0.221150    2.742934   -0.947678
C      4.206980   -0.372138   -0.450406
C     -0.192341    1.521521   -0.433653
Cl     4.851363    0.670310   -1.692151
N     -3.212433   -1.925782   -0.069198
O     -3.722445   -0.902726    2.486918
O     -3.836212    2.086496   -0.419452
O     -0.263654    4.933435   -1.788952
O      1.891564    4.146133   -1.610330
O      0.727004    0.659820   -0.140517
Cl     0.690152    0.000000    0.000000
H      6.403433   -1.329197   -1.739805
H      7.158415   -1.161345   -0.054987
H      6.577667   -2.731265   -0.667975
H     -2.515934   -2.658436    1.817657
H     -4.354906   -2.831913    1.519309
H     -3.197697   -3.836660    0.677587
H      2.991304   -2.869456    2.152478
H      5.206431   -3.169142    1.156937
H      1.589132   -0.943583    1.475831
H     -0.504087   -1.467001    0.794849
H     -0.418461   -0.837595   -0.922944
H     -1.495589   -3.131010   -0.316231
H     -2.019098   -2.101457   -1.746186
H     -2.793942    4.242044   -1.340892
H      3.502188    2.338879   -0.949182
H     -4.724363    0.611808    1.475208
H     -5.199401   -1.025678    1.162977
H     -1.872684    0.189070    1.482938
H     -3.892241   -0.128294   -0.789657
H     -3.800970   -0.361559    3.288747
H     -4.462249    2.830121   -0.673272
H     -0.909091    5.667249   -2.036576
H     -0.690152    0.000000    0.000000
