56

C     -3.784136   -2.763994   -1.397969
C     -4.187724    2.370214    1.357247
C     -0.793217    5.571810    0.929281
C      4.025990   -3.072841   -0.774915
C      3.096797   -2.069577   -0.511218
C      5.331321   -2.719553   -1.052498
C     -0.755025   -1.697423   -0.378298
C     -1.678731   -1.777749   -1.615197
C      4.749053   -0.440009   -0.800533
C      2.880750    1.638379   -0.198484
C     -1.550622    2.893457    0.834865
C     -3.098724   -2.488687    1.180541
C      3.438683   -0.725346   -0.517958
C      5.719373   -1.399388   -1.072472
C     -1.516290   -0.795581    0.538653
C     -2.886434   -1.239347    0.278847
C      1.945454    2.611836    0.076045
C      2.445464    0.324710   -0.230494
C     -1.988454    1.594222    0.803872
C     -0.261721    3.250265    0.593164
C     -1.082308    0.567914    0.508731
C      0.647690    2.236134    0.301439
C      0.245171    0.898550    0.261253
N     -2.976273   -1.640955   -1.095984
N      7.058143   -1.056149   -1.358407
O     -2.974771   -2.054301    2.505464
O      2.282808    3.849663    0.118456
O      7.989500   -2.016619   -1.625321
O      7.398332    0.132999   -1.366548
O     -3.318586    1.296821    1.066548
O      0.180928    4.576804    0.628101
O      1.193455    0.044716   -0.006329
H     -3.208264   -3.742062   -1.469235
H     -4.136586   -2.609475   -2.472187
H     -4.724667   -2.871200   -0.830313
H     -3.780394    3.014341    2.156596
H     -4.317063    2.959369    0.415099
H     -5.204782    1.974667    1.616151
H     -1.339235    5.358180    1.868220
H     -1.494911    5.619390    0.053923
H     -0.293739    6.538457    1.055135
H      3.718610   -4.091885   -0.756760
H      2.106774   -2.404470   -0.286372
H      6.096280   -3.456277   -1.264842
H      0.171539   -1.376460   -0.805546
H     -0.667207   -2.737523    0.055854
H     -1.487248   -2.724551   -2.173223
H     -1.439670   -0.892637   -2.236554
H      5.100065    0.580049   -0.827396
H      3.888393    1.946388   -0.368239
H     -2.240877    3.719064    1.060229
H     -4.165556   -2.766900    1.068464
H     -2.397823   -3.284086    0.963754
H     -1.201318   -1.188787    1.598261
H     -3.744495   -0.631558    0.485285
H     -3.013721   -2.833009    3.113810
