51

C     -3.906078   -2.747836    0.279220
C      4.731152   -0.714583    2.340106
C      3.699391    0.103521    1.971379
C      5.202865   -1.657881    1.428532
C     -1.841660   -1.093177   -1.556275
C     -3.315560   -1.512056   -1.601723
C     -1.894177    3.419470   -1.077442
C      2.525468    2.287077    0.229955
C     -2.622430   -0.987591    1.882788
C     -1.776251   -0.249668   -0.323772
C      3.115211    0.007034    0.698549
C      4.660080   -1.790576    0.166655
C     -2.990296   -0.498739    0.484004
C     -2.223825    2.091385   -0.966270
C     -0.579128    3.807210   -0.807172
C      1.623808    3.248011   -0.154432
C      2.120871    0.955052    0.309276
C     -1.335986    1.100594   -0.604044
C      0.344270    2.830221   -0.437761
C      3.615077   -0.942405   -0.167255
C     -0.038632    1.514022   -0.344549
C      5.174037   -2.777553   -0.805988
Cl     2.918718   -1.061669   -1.758678
F      4.185348   -3.654384   -1.127062
F      5.440659   -2.050358   -1.989777
F      6.337771   -3.370788   -0.367143
N     -3.804512   -1.439005   -0.228685
O     -3.731339   -1.185266    2.636643
O     -3.552597    1.766300   -1.249792
O     -0.181480    5.123749   -0.903113
O      1.986919    4.441432   -0.232150
O      0.901158    0.638408    0.027911
H     -5.005617   -3.008796    0.341393
H     -3.500352   -2.978190    1.252061
H     -3.507152   -3.499177   -0.466214
H      5.191423   -0.648435    3.329589
H      3.341975    0.822286    2.711964
H      6.026174   -2.320572    1.709089
H     -1.684969   -0.469315   -2.492949
H     -1.144495   -1.930446   -1.610895
H     -3.935862   -0.802502   -2.171105
H     -3.435141   -2.512036   -2.029649
H     -2.644546    4.160104   -1.389101
H      3.549762    2.552082    0.460471
H     -1.923287   -1.854793    1.820195
H     -2.009326   -0.175625    2.341906
H     -0.890039   -0.770713    0.269242
H     -3.570567    0.425911    0.630122
H     -4.590560   -0.916275    2.239504
H     -4.226528    2.470796   -1.518473
H     -0.829746    5.855743   -1.179084
