51

C      4.426244    2.013600    2.839829
C     -3.874648    0.753463    2.595456
C      5.359092   -1.213279    1.155530
C      5.421202   -0.109736    1.983797
C      4.290255   -1.376213    0.327523
C     -0.939843   -0.089319    1.034438
C     -1.946281   -0.444615    2.099405
C     -1.867621   -1.028221   -3.587699
C      2.552192   -1.320978   -1.918672
C     -3.821931    1.754708    0.146442
C      4.397857    0.811751    1.958038
C     -1.731843    0.410796   -0.124716
C      3.215285   -0.474568    0.254865
C     -3.129903    0.408547    0.294504
C     -2.275456   -0.412224   -2.392358
C     -0.572949   -1.420208   -3.774323
C      1.667188   -1.574958   -2.936032
C      2.176048   -0.701297   -0.724840
C     -1.347614   -0.209036   -1.408612
C      0.348199   -1.188275   -2.742235
C      3.315177    0.600072    1.083683
C     -0.004671   -0.587519   -1.561536
Cl     2.135983    1.892565    1.041368
N     -3.239504   -0.069715    1.650593
O     -5.144990    1.595759    0.459771
O     -3.620376   -0.049535   -2.299831
O     -0.175193   -2.024686   -4.937653
O      1.961790   -2.128327   -4.022465
O      0.910791   -0.370060   -0.617339
H      4.338559    2.924615    2.246918
H      5.311900    1.956948    3.477544
H      3.539226    1.869357    3.529583
H     -4.985893    0.597441    2.538123
H     -3.625167    0.447516    3.660777
H     -3.680355    1.832589    2.567969
H      6.198335   -1.919244    1.210929
H      6.276022    0.008021    2.641288
H      4.271023   -2.251858   -0.296427
H     -0.203325    0.586666    1.450748
H     -0.478711   -1.113825    0.797229
H     -1.896648   -1.557841    2.311729
H     -1.682508    0.097258    3.057369
H     -2.600452   -1.177990   -4.350790
H      3.603435   -1.604701   -2.032229
H     -3.729230    2.082002   -0.890458
H     -3.300701    2.538492    0.745003
H     -1.366773    1.529877   -0.202568
H     -3.728402   -0.322009   -0.291637
H     -5.624989    2.440280    0.661783
H     -4.281571   -0.210286   -3.014336
H     -0.838253   -2.201801   -5.695480
