53

C     -4.869234    1.586127   -0.497393
C      5.702338    0.581513   -0.337113
C      4.636687   -0.261824   -0.512570
C      5.508969    1.708060    0.444261
C     -2.008955    0.645788    1.513299
C     -3.505929    0.969512    1.373197
C     -1.969525   -3.501976   -0.700264
C      2.620190   -2.332906   -0.654752
C     -2.225607    2.156360   -0.957780
C     -1.653964    0.069079    0.232159
C      3.373070   -0.084635    0.019264
C      4.276040    1.952872    1.018121
C     -2.629607    0.668282   -0.752989
C     -2.291288   -2.245707   -0.269921
C     -0.657285   -3.845122   -0.895238
C      1.670630   -3.290207   -0.885686
C      2.289390   -1.052131   -0.212683
C     -1.314994   -1.279934   -0.021120
C      0.348844   -2.930963   -0.664831
C      3.232592    1.067875    0.801583
C      0.028048   -1.652527   -0.228850
C      4.036036    3.162344    1.880593
Cl     1.697876    1.396845    1.566655
F      3.679130    2.809695    3.171846
F      5.144662    3.961498    1.939397
F      3.002971    3.914227    1.353614
N     -3.876971    0.698542   -0.008313
O     -0.974810    2.223105   -1.618724
O     -3.590943   -1.852805   -0.054654
O     -0.281313   -5.132092   -1.328967
O      1.935320   -4.441845   -1.275417
O      1.022385   -0.806123   -0.031168
Cl     0.684083    0.000000    0.000000
H     -5.886456    1.068534   -0.393067
H     -4.827650    1.824156   -1.575518
H     -4.981411    2.542496    0.102959
H      6.680645    0.406563   -0.783510
H      4.827741   -1.127534   -1.134909
H      6.312019    2.428833    0.625911
H     -1.518581    1.634943    1.632340
H     -1.784532    0.085912    2.445467
H     -4.140414    0.388630    2.035059
H     -3.690068    2.038856    1.561534
H     -2.773688   -4.251084   -0.884974
H      3.661620   -2.595983   -0.817150
H     -2.953989    2.642152   -1.670970
H     -2.138937    2.685588   -0.011248
H     -0.632767    0.655415   -0.048318
H     -2.691750    0.168071   -1.721658
H     -0.372114    2.809735   -1.091553
H     -4.416947   -2.445161   -0.163032
H     -1.027471   -5.821051   -1.512919
H     -0.684083    0.000000    0.000000
