57

C      4.268031   -3.662684    1.636394
C     -1.154415   -3.901314    0.115111
C     -4.826395    2.335882   -0.040899
C     -1.328958    5.861529   -0.797319
C      5.504443   -0.896273   -0.506542
C      5.464750   -2.057677    0.213545
C      4.401223   -0.083387   -0.531583
C     -1.843940   -1.109520    1.657463
C     -2.599718   -2.390480    1.255129
C      2.464575    1.873873   -0.214668
C     -2.054810    3.184816   -0.296560
C     -1.240535   -1.486104   -1.969422
C      4.333817   -2.387653    0.891088
C     -1.981827   -0.440397    0.237081
C      3.213837   -0.385470    0.149062
C     -1.268627   -1.574801   -0.490435
C      1.554236    2.872744   -0.350018
C      2.096437    0.531625    0.046545
C     -2.411779    1.885347   -0.037390
C     -0.731067    3.530420   -0.391893
C     -1.409221    0.859287    0.132800
C      0.218879    2.539200   -0.226403
C      3.190542   -1.537052    0.857602
C     -0.097964    1.209144    0.030862
Cl     1.852328   -2.031166    1.857685
N     -2.028755   -2.725096   -0.051872
O     -2.494541   -1.367644   -2.552390
O      1.852409    4.080791   -0.579355
O     -3.724037    1.511698    0.072563
O     -0.367319    4.816855   -0.640596
O      0.817390    0.271665    0.160341
H      3.210772   -3.838968    1.971921
H      4.958025   -3.672670    2.478831
H      4.477706   -4.460485    0.875860
H     -1.561952   -4.695082   -0.513362
H     -1.200244   -4.252886    1.172713
H     -0.125627   -3.709116   -0.201139
H     -5.338826    2.284967   -1.053413
H     -5.602395    2.019116    0.724286
H     -4.559677    3.396058    0.166305
H     -0.832406    6.862364   -0.599728
H     -2.117080    5.793928   -0.041767
H     -1.770139    5.830456   -1.794764
H      6.428845   -0.654695   -1.044295
H      6.324836   -2.723543    0.258397
H      4.435726    0.817867   -1.126522
H     -2.471756   -0.483496    2.332540
H     -0.830298   -1.219262    1.894972
H     -2.590104   -3.163355    1.988805
H     -3.631968   -2.035758    1.035762
H      3.512826    2.176759   -0.279918
H     -2.801636    3.978040   -0.436102
H     -0.775507   -2.423095   -2.431332
H     -0.558844   -0.672865   -2.339980
H     -3.020250   -0.515213   -0.060062
H     -0.259104   -1.748246   -0.052989
H     -2.969914   -2.218982   -2.560946
