54

C     -4.498369    1.147339   -1.285540
C     -2.942991   -3.093343    1.539227
C      1.314631   -5.289963    1.080080
C      5.114863    2.984456   -2.074990
C      4.443156    1.844177   -1.749363
C      4.711302    4.185658   -1.532914
C     -0.908751    1.571757   -0.755167
C     -2.201259    1.666693   -1.619957
C      3.542381   -0.537399   -0.434805
C     -0.273712   -2.953733    0.908356
C     -3.428776    1.160550    1.610209
C     -1.359859    0.616969    0.305217
C      3.370472    1.868485   -0.887396
C      3.648082    4.213734   -0.675684
C     -2.789258    0.579266    0.334942
C      2.950931   -1.709383   -0.064109
C      2.742113    0.608072   -0.508304
C     -1.052386   -1.783081    0.813182
C      1.058285   -2.898888    0.603352
C     -0.521729   -0.576578    0.422376
C      1.602162   -1.699537    0.214766
C      2.971814    3.042049   -0.347235
C      0.822164   -0.546160    0.130795
Br     3.066227    5.881436    0.100002
Cl     1.713589    3.171163    0.854349
N     -3.247613    1.549280   -0.688816
O     -3.171146    0.470059    2.749520
O      3.625168   -2.756903    0.014875
O     -2.381243   -1.869237    1.127300
O      1.818723   -4.048057    0.693469
O      1.483665    0.529959   -0.232262
H     -4.950181    0.260997   -0.779149
H     -4.306582    0.884431   -2.358268
H     -5.224667    1.994133   -1.309023
H     -3.997586   -2.988302    1.865195
H     -2.350315   -3.450607    2.431827
H     -2.773001   -3.854680    0.763177
H      2.010918   -6.135253    0.789995
H      1.170797   -5.376411    2.180838
H      0.379804   -5.502688    0.532951
H      5.979427    2.973017   -2.763968
H      4.779653    0.896755   -2.195204
H      5.229708    5.079035   -1.784382
H     -0.156302    1.036930   -1.433391
H     -0.611244    2.557547   -0.444295
H     -2.176828    2.688100   -2.041544
H     -2.175143    0.908374   -2.425097
H      4.582008   -0.425560   -0.677970
H     -0.772838   -3.853554    1.226857
H     -4.519351    1.252395    1.403744
H     -3.027780    2.213457    1.657313
H     -1.067445    1.221767    1.288857
H     -3.339865   -0.334487    0.019644
H     -3.905821    0.625764    3.406417
