57

C      6.493064   -2.792004    0.445979
C     -3.274848   -2.311098    1.785821
C     -4.201341    2.908461    0.459814
C     -0.073791    5.545550    1.695395
C      3.440114   -3.197482   -1.712729
C      4.663206   -3.443976   -1.121915
C      2.721584   -2.063399   -1.384287
C     -0.873959   -1.510981   -0.291427
C     -1.782105   -2.727925   -0.069368
C      2.909348    1.201671    0.365970
C     -1.348134    3.180686    0.766281
C     -3.902772   -1.122678   -1.425343
C      5.161836   -2.556042   -0.204427
C     -1.788826   -0.330225   -0.507387
C      3.189662   -1.131145   -0.454935
C     -3.081719   -0.826351   -0.136640
C      2.133114    2.292719    0.703285
C      2.346721    0.028953   -0.088498
C     -1.888505    2.015593    0.319473
C      0.007834    3.266465    0.897466
C     -1.173813    0.872794   -0.027136
C      0.773759    2.165493    0.567045
C      4.402707   -1.429124    0.096853
C      0.201237    0.973536    0.104801
Cl     5.083359   -0.397716    1.334720
N     -2.968969   -2.162107    0.423119
O     -4.088584    0.083518   -2.087700
O      2.671016    3.359620    1.120809
O     -3.245191    1.944815    0.193288
O      0.642931    4.406981    1.346836
O      1.049047    0.015721   -0.180508
H      6.422971   -2.993253    1.522095
H      7.091622   -1.848506    0.311078
H      7.019241   -3.555412   -0.146054
H     -4.141419   -1.629299    2.027004
H     -3.696262   -3.330342    1.939907
H     -2.415750   -2.112100    2.439983
H     -5.099110    2.359284    0.873800
H     -4.596765    3.333916   -0.506752
H     -3.925128    3.698441    1.164363
H      0.583250    6.150745    2.372047
H     -0.373099    6.177138    0.832706
H     -0.970479    5.307330    2.283844
H      3.084447   -3.931667   -2.434771
H      5.261476   -4.320559   -1.350466
H      1.800068   -1.934547   -1.907005
H     -0.220151   -1.715533   -1.124180
H     -0.325285   -1.432505    0.694279
H     -1.322426   -3.421077    0.689887
H     -1.861747   -3.313840   -0.990210
H      3.981283    1.340940    0.446053
H     -1.935367    4.058261    1.027542
H     -4.866444   -1.575848   -1.140900
H     -3.295023   -1.765749   -2.100806
H     -1.776910   -0.207843   -1.657740
H     -3.794620   -0.208618    0.435447
H     -4.826353    0.610317   -1.720239
