52

C      3.924337   -2.437457   -1.487126
C     -3.470633   -2.444549   -1.075888
C     -2.661235   -1.341574   -0.905580
C     -4.737770   -2.407949   -0.598669
C      0.852576   -0.969785   -0.347874
C      1.686410   -2.159357   -0.867131
C      1.917869    3.571853    0.696663
C     -2.562655    2.199428    0.042475
C      4.068685   -1.135684    0.822004
C      1.880785   -0.142926    0.376123
C     -3.096625   -0.202285   -0.265496
C     -5.232656   -1.316170    0.042995
C      3.172555   -0.498847   -0.244446
C      2.339383    2.295953    0.613984
C      0.575782    3.937022    0.575775
C     -1.644611    3.234630    0.249436
C     -2.134002    0.899198   -0.041164
C      1.455560    1.246735    0.400315
C     -0.309367    2.914421    0.365739
C     -4.380331   -0.209724    0.200289
C      0.096522    1.568670    0.274306
Cl    -5.052195    1.149257    1.095290
N      2.869343   -1.481028   -1.277538
N     -6.556669   -1.280683    0.550715
O      3.449676   -2.240865    1.417250
O      3.674066    1.993582    0.740037
O      0.255745    5.262846    0.673849
O     -2.120872    4.393224    0.313265
O     -7.123272   -2.440189    0.993660
O     -7.161201   -0.201355    0.578485
O     -0.849188    0.707159    0.080647
Cl     0.688335    0.000000    0.000000
H      4.900898   -1.999887   -1.704367
H      3.629787   -3.010218   -2.404458
H      3.957813   -3.204175   -0.671671
H     -3.049023   -3.308506   -1.594936
H     -1.660880   -1.398084   -1.324098
H     -5.389573   -3.276664   -0.730616
H      0.086650   -1.402151    0.280655
H      0.491996   -0.410576   -1.249839
H      1.153695   -2.601485   -1.748471
H      1.803944   -2.863147   -0.049617
H      2.630638    4.375491    0.864167
H     -3.590245    2.456040   -0.079709
H      5.008241   -1.527997    0.370352
H      4.402535   -0.406057    1.575907
H      1.845949   -0.582263    1.446339
H      3.700813    0.298952   -0.793510
H      3.059517   -2.035090    2.290750
H      4.419604    2.641985    0.897049
H     -0.528373    5.790277    0.633684
H     -0.688335    0.000000    0.000000
