21

C     -2.030931   -0.523464    0.746179
C      2.432980   -1.255252    0.480126
C      2.947452    0.023993    0.488265
C      1.094397   -1.389733    0.181185
C      2.161640    1.119550    0.210635
C      0.284072   -0.281469   -0.103242
C      0.804730    0.986430   -0.092676
C     -1.330969    1.313381   -0.616719
C     -1.142398   -0.138802   -0.446694
N     -0.218430    1.919316   -0.411233
O     -2.569057    1.911389   -0.956026
O     -1.499248   -0.857932   -1.578555
H     -3.017570    0.008225    0.642653
H     -1.497753   -0.127077    1.641699
H     -2.190722   -1.594650    0.816720
H      3.067728   -2.111755    0.701924
H      3.994842    0.169278    0.718686
H      0.672726   -2.397353    0.170967
H      2.541688    2.135614    0.210450
H     -2.550716    2.764325   -1.521728
H     -1.954462   -1.674011   -1.282615
