44

C     -5.009696    1.271081   -0.502212
C      0.199109    3.088335    2.965882
C     -0.377803   -1.531984   -2.467878
C     -0.483557    3.299187    1.787779
C     -1.641790   -0.951911   -1.870244
C      0.754662    1.835688    3.150238
C      0.568591   -1.874051   -1.390007
C      3.459129   -1.291717    2.168366
C      5.022415   -2.540051   -1.017768
C     -3.679797    1.077156   -1.096589
C      4.111564   -1.995998   -0.054359
C     -0.601656    2.297024    0.848665
C      4.401183   -1.836408    1.271017
C     -1.350229    0.328673   -1.045876
C      0.637482    0.834904    2.210527
C      2.243676   -0.927587    1.675897
C     -0.066391    1.045094    1.011432
C      2.865911   -1.621562   -0.552250
C     -0.374518    0.047512    0.004869
C      1.948230   -1.100171    0.306359
Cl     2.483439   -1.711179   -2.233098
F     -1.213446    2.604596   -0.283518
F      5.618157   -2.201582    1.760325
N      5.770786   -2.974939   -1.780499
N     -2.695256    0.532914   -0.467106
N      0.688092   -0.880559   -0.330941
O     -3.449522    1.493163   -2.397628
O      1.314383   -0.360917    2.617228
H     -5.432751    0.304184   -0.105674
H     -5.724086    1.591280   -1.282895
H     -5.019662    2.054079    0.285274
H      0.292859    3.864605    3.704592
H     -0.701447   -2.466843   -2.990223
H     -0.109967   -0.829820   -3.255476
H     -0.921944    4.285375    1.635759
H     -2.362044   -0.656512   -2.644810
H     -2.028396   -1.707706   -1.150052
H      1.296909    1.660736    4.092418
H      0.963345   -2.888294   -1.231576
H     -0.317536   -2.357365   -0.726715
H      3.656341   -1.155045    3.200676
H     -1.098981    1.027454   -1.841687
H     -1.028582   -0.714620    0.669789
H     -2.607208    2.033781   -2.648010
