44

C     -3.930499   -1.573318   -1.319801
C     -0.418611    4.484632   -0.892818
C     -0.427235   -2.500059    0.715171
C     -1.561942    3.742195   -0.779543
C     -0.759938   -1.737111   -0.580338
C      0.760315    3.921179   -0.524032
C      0.365202   -1.555080    1.553456
C      2.666722   -1.338351    0.442242
C      4.023967    1.057434   -0.063778
C      4.694504   -2.615213    0.093250
C     -3.709258   -1.185893    0.081094
C      4.014774   -1.345617    0.139805
C     -1.490482    2.447422   -0.296526
C      4.683396   -0.165035   -0.109316
C     -1.437474   -0.391320   -0.252867
C      1.996242   -0.137848    0.493089
C      0.811049    2.627142   -0.044345
C      2.662718    1.021237    0.245200
C     -0.311609    1.842954    0.087008
C     -0.532901    0.509053    0.554869
F     -2.657865    1.807103   -0.215815
F      6.011927   -0.162628   -0.407795
N      5.259585   -3.640738    0.069926
N     -2.634629   -0.691079    0.472576
N      0.645280   -0.310855    0.822566
O     -4.739970   -1.386992    0.970754
O      2.120463    2.299566    0.256755
H     -3.282180   -1.026059   -2.033085
H     -3.863983   -2.690207   -1.474656
H     -5.010848   -1.343536   -1.557405
H     -0.450536    5.517086   -1.274467
H     -1.424234   -2.779489    1.132998
H      0.049413   -3.431014    0.433895
H     -2.526586    4.183832   -1.074379
H     -1.519938   -2.348819   -1.093836
H      0.126188   -1.601144   -1.212118
H      1.661505    4.531487   -0.622383
H     -0.400459   -1.177737    2.317124
H      1.103556   -1.908023    2.238642
H      2.095229   -2.212596    0.632686
H      4.544447    1.987951   -0.258902
H     -1.600275    0.076762   -1.241829
H     -1.011290    0.597595    1.585590
H     -4.593739   -1.398868    1.991337
