44

C      5.056756    0.558540   -0.615842
C     -0.985845    3.589707    2.579232
C      1.361608   -1.846320   -1.357563
C      0.163964    3.552360    1.859146
C      1.103185   -0.424467   -1.886186
C     -1.759718    2.464291    2.623244
C      0.227744   -2.157082   -0.451259
C     -4.005410   -0.981779    1.137931
C     -4.105479   -3.375826   -1.687385
C      3.660802    0.795284   -1.068212
C     -3.658780   -2.438835   -0.704281
C      0.528195    2.394077    1.191780
C     -4.495528   -1.877981    0.217857
C      1.259539    0.566007   -0.715720
C     -1.388735    1.316991    1.955376
C     -2.687499   -0.617615    1.173074
C     -0.209949    1.233105    1.198696
C     -2.309631   -2.085338   -0.690940
C      0.408080    0.187169    0.443287
C     -1.814421   -1.200845    0.214400
Cl    -1.262145   -2.800770   -1.872102
F      1.734478    2.544802    0.546276
F     -5.830722   -2.205156    0.232095
N     -4.456958   -4.141004   -2.506514
N      2.681392    0.397717   -0.381128
N     -0.438883   -0.977073    0.093847
O      3.445530    1.463496   -2.259984
O     -2.347523    0.295923    2.156510
H      5.545161   -0.279520   -1.162347
H      5.668075    1.464677   -0.788207
H      5.105414    0.364522    0.476658
H     -1.273784    4.494535    3.102379
H      1.592779   -2.495804   -2.189953
H      2.383885   -1.711451   -0.888509
H      0.808120    4.455328    1.809054
H      0.130877   -0.277343   -2.326005
H      1.864372   -0.141420   -2.627949
H     -2.693854    2.472327    3.202825
H     -0.011379   -3.164513   -0.114588
H      0.892860   -2.189919    0.538608
H     -4.681850   -0.526042    1.885998
H      1.022509    1.528928   -1.186709
H      1.123623   -0.323540    1.213834
H      2.649145    2.099858   -2.370725
