69

C     -2.697866   -1.274994    0.452969
C     -2.084136   -2.054436   -0.708187
C      3.332774   -2.016114   -0.326264
C      1.960106   -1.898242   -0.120416
C     -2.385493    0.181980    0.008402
C      3.563877    0.276295    0.064478
C     -1.618466    2.451781   -0.482548
C      0.783677    3.645767   -0.071045
C      4.127390   -0.923912   -0.231897
C      1.334672   -0.695750    0.184363
C     -1.472391    3.816783   -0.696319
C     -0.258622    4.442257   -0.492348
C     -0.595885   -2.124887   -0.309136
C     -0.584227    1.645933   -0.061333
C      2.199149    0.382170    0.266697
C      0.647964    2.292097    0.143111
C     -0.121953   -0.865062    0.368079
Br    -2.937729    4.864449   -1.275685
F      5.477061   -0.966330   -0.420931
F     -0.101459    5.780013   -0.697904
N     -0.617798   -3.269954    0.613178
N     -0.935059    0.289803    0.111527
O      1.837026    1.715189    0.560933
C     -0.797362   -1.689115   -0.592781
C     -2.395926   -0.586444    0.875088
C      3.821324   -0.984965   -0.254927
C      3.216625   -0.011848   -0.993231
C      3.143538   -1.543192    0.822884
C      1.935134    0.392498   -0.642176
C      1.871810   -1.139099    1.167990
C     -1.691279    0.491911   -1.187199
C      1.250778   -0.154693    0.427064
C     -0.121134    0.308455    0.767143
C     -1.189067   -0.348112   -0.025854
O     -1.417016    3.883264   -0.277343
O     -2.360349    2.561197    1.755141
O     -2.559857    1.440164   -0.644905
O     -0.135980    1.695125    0.713863
P     -1.641466    2.352971    0.455024
H     -3.783875   -1.420946    0.442436
H     -2.211802   -1.507538    1.400532
H     -2.194216   -1.532918   -1.676196
H     -2.559671   -3.031012   -0.734316
H      3.811004   -2.968241   -0.565633
H      1.457777   -2.846710   -0.219425
H     -2.933350    0.749304    0.771497
H     -2.777160    0.178769   -1.007072
H      4.172092    1.184389    0.152301
H     -2.590078    2.060936   -0.666551
H      1.736473    4.141911    0.088111
H     -0.091123   -2.340992   -1.264609
H     -0.217540   -1.093731    1.494834
H     -0.174463   -3.095118    1.511695
H     -0.496678   -4.172938    0.160127
H     -0.825074   -2.499988    0.158681
H      0.158728   -1.631362   -1.143741
H     -1.572896   -1.954258   -1.352811
H     -3.234334    0.080175    0.631990
H     -2.754228   -1.625645    0.829209
H     -2.123738   -0.395508    1.950238
H      4.812659   -1.307580   -0.515120
H      3.725007    0.442752   -1.843127
H      3.641231   -2.317563    1.399850
H      1.508109    1.170519   -1.268325
H      1.381623   -1.614480    2.030295
H     -2.298142   -0.148813   -1.851025
H     -0.840467    0.936534   -1.700014
H     -0.274740    0.044763    1.847779
H     -2.233512    4.152336   -0.768541
