69

C      2.011563    3.357268   -0.041307
C      3.128203    2.840051    0.574773
C     -2.935921   -0.540311    0.042856
C      0.821299    2.647043   -0.178003
C     -2.920212    0.821257   -0.582284
C      3.028901    1.535347    1.074123
C     -1.796267   -1.387567   -0.592806
C      0.108786   -2.773748   -0.820263
C      2.432144   -2.702769    0.739479
C      0.745741    1.343774    0.333152
C      1.000197   -3.866742   -0.786061
C      2.132833   -3.836626   -0.026890
C     -1.602791    1.520552   -0.454033
C      0.430612   -1.685932   -0.058784
C      1.862831    0.814052    0.948842
C      1.583892   -1.642593    0.715661
C     -0.586408    0.716999    0.223750
Br     0.579592   -5.415642   -1.843624
F      2.983656   -4.868307    0.013639
N     -1.939197    2.753612    0.303552
N     -0.600052   -0.670473   -0.126572
O      1.946842   -0.512266    1.505753
C     -0.781141   -1.931531    0.502899
C     -0.846215   -1.076438   -1.856078
C      3.952534    0.209461    0.398844
C      3.257798    1.328048    0.808092
C      3.267466   -0.844418   -0.153977
C      1.875536    1.379751    0.658465
C      1.897929   -0.767846   -0.291010
C     -2.513741   -0.408364   -0.250839
C      1.167675    0.330230    0.104751
C     -0.270148    0.472743   -0.012635
C     -1.039081   -0.745335   -0.392213
O     -3.306665    1.742430    2.050001
O     -1.843467    3.215094    0.431709
O     -2.764690    0.942751   -0.574835
O     -0.740833    1.013052    1.209756
P     -2.200204    1.808456    0.792602
H      2.003981    4.356049   -0.455729
H      4.040552    3.392795    0.677989
H     -3.865321   -1.076523   -0.129446
H     -2.714509   -0.518252    1.125470
H     -0.015727    3.050756   -0.669835
H     -3.234339    0.685437   -1.644522
H     -3.736593    1.396014   -0.099272
H      3.890886    1.093480    1.571150
H     -1.993905   -1.313264   -1.644932
H     -1.961916   -2.340073   -0.073160
H     -0.760807   -2.835898   -1.449949
H      3.307549   -2.643127    1.343960
H     -1.305023    1.789088   -1.510664
H     -0.954695    0.681641    1.341426
H     -2.635571    2.505801    1.048832
H     -2.480804    3.329097   -0.396269
H     -1.680329   -2.199504    1.133768
H      0.002851   -1.671714    1.253176
H     -0.552287   -2.861529   -0.056924
H     -0.045027   -0.396748   -2.259515
H     -1.738283   -0.862048   -2.476821
H     -0.593763   -2.137058   -2.023454
H      5.034804    0.135796    0.501304
H      3.835333    2.134659    1.237847
H      3.823689   -1.718329   -0.472027
H      1.397224    2.279394    0.997658
H      1.361508   -1.579369   -0.718610
H     -3.069309   -1.077046   -0.932667
H     -2.844756   -0.623213    0.787824
H     -0.484263    1.254021   -0.774526
H     -3.560144    2.654601    2.341548
