43

C      4.901437   -0.635598    0.248751
C     -0.716706    4.403618    0.382689
C      0.806844   -2.015599   -1.691897
C      0.570873    3.924889    0.530993
C      1.061021   -0.595802   -2.097639
C     -1.725861    3.503837    0.135471
C     -0.130635   -2.113056   -0.496697
C     -2.225054   -2.108970    0.843288
C     -4.184892   -0.097714    0.608177
C      3.398800   -0.802422    0.190142
C     -3.525117   -2.348195    1.209345
C      0.828131    2.577454    0.431558
C     -4.475659   -1.373734    1.095457
C      1.470834    0.273239   -0.936748
C     -1.903829   -0.861415    0.357876
C     -1.491166    2.160017    0.033288
C     -2.885515    0.128897    0.246592
C     -0.215758    1.679138    0.178419
C      0.374595    0.334833    0.110433
Br    -3.977694   -4.069033    1.880347
F      2.117895    2.209090    0.599220
F     -5.775838   -1.612518    1.460998
N      2.748306   -0.050381   -0.507056
N     -0.503313   -0.775842    0.005336
O      2.864956   -1.820299    0.950911
O     -2.687810    1.420402   -0.222764
H      5.096567    0.079292    1.062587
H      5.398200   -1.590836    0.499108
H      5.288774   -0.314014   -0.736390
H     -0.977225    5.438910    0.449082
H      0.445424   -2.543611   -2.597260
H      1.800703   -2.505546   -1.480190
H      1.335031    4.663829    0.724490
H      0.195536   -0.119999   -2.597546
H      1.905850   -0.597005   -2.814132
H     -2.750562    3.849555    0.013214
H     -1.013792   -2.619698   -0.970196
H      0.391253   -2.725603    0.228571
H     -1.442299   -2.841839    0.922105
H     -4.958633    0.651843    0.530147
H      1.547128    1.317943   -1.425114
H      0.940975    0.254693    1.094418
H      2.078225   -1.732746    1.550618
