38

C      3.804039   -0.065342   -1.036451
C      4.091210    1.117709   -0.386411
C     -1.671317   -2.379663   -0.794878
C      2.549835   -0.628203   -0.974949
C     -0.928308   -2.788672    0.425253
C      3.087175    1.730521    0.332551
C     -2.127794   -0.898542   -0.707850
C     -2.553538    1.496069   -0.277066
C     -0.925384    3.323875    1.042038
C      1.513782   -0.032814   -0.256111
C     -3.012922    2.762663    0.047267
C     -2.214611    3.672208    0.699480
C      0.240370   -1.902831    0.742661
C     -1.269354    1.156734    0.067862
C      1.835860    1.155952    0.385563
C     -0.439881    2.076137    0.734468
C      0.310051   -0.837743   -0.346624
Br    -4.807681    3.192878   -0.451621
F     -2.695587    4.899931    1.001037
N      1.444468   -2.670980    0.831713
N     -0.953700   -0.162251   -0.312468
O      0.897978    1.878318    1.151165
H      4.621900   -0.522196   -1.595614
H      5.097176    1.557912   -0.442668
H     -2.639731   -2.961903   -0.816917
H     -1.200670   -2.603691   -1.754635
H      2.392566   -1.563240   -1.511858
H     -1.658597   -2.736714    1.285791
H     -0.610542   -3.826045    0.320696
H      3.263434    2.665649    0.863151
H     -2.455526   -0.730887   -1.751147
H     -2.903806   -0.944596    0.056399
H     -3.196870    0.792818   -0.796798
H     -0.275048    4.023202    1.557073
H      0.058203   -1.333820    1.697108
H      0.387516   -1.437449   -1.307207
H      1.320595   -3.627148    0.415522
H      1.624710   -2.847846    1.864474
