38

C      4.321200    0.288912    0.298897
C     -2.532149   -1.256936    0.577818
C      3.847516   -0.924708    0.731271
C     -1.621889   -2.476063    0.559440
C      3.426075    1.152407   -0.290857
C     -2.148007   -0.501862   -0.612217
C     -2.098750    1.892932    0.140291
C     -0.051924    3.654588   -0.593663
C     -2.313496    3.258465    0.188484
C      2.490944   -1.281495    0.578223
C     -1.303089    4.119889   -0.174058
C     -0.148752   -2.155088    0.547405
C     -0.872234    1.457898   -0.272398
C      2.079783    0.814879   -0.449038
C      0.148903    2.305336   -0.636760
C      1.598867   -0.430277   -0.007487
C      0.259392   -0.938576   -0.156422
Br    -4.021812    3.857170    0.763143
F      2.075825   -2.459329    1.025442
F     -1.510171    5.453280   -0.128657
N      0.333680   -3.366869   -0.185581
N     -0.812115    0.039705   -0.315694
O      1.443689    1.895075   -1.068121
H      5.353794    0.571653    0.409325
H     -3.560121   -1.652154    0.493410
H     -2.365379   -0.822975    1.572844
H      4.500345   -1.636535    1.199058
H     -1.883262   -3.093312    1.464467
H     -1.922569   -3.106208   -0.332663
H      3.827960    2.106065   -0.626680
H     -1.891436   -1.272433   -1.410490
H     -2.814331    0.089952   -1.191869
H     -2.831938    1.171255    0.408601
H      0.750449    4.309830   -0.880899
H      0.099438   -2.198464    1.628974
H      0.279477   -1.324638   -1.267701
H      0.047474   -4.191625    0.353109
H     -0.181390   -3.349744   -1.092584
