38

C      0.885123   -2.852654   -0.095303
C     -0.626085   -2.884846   -0.151992
C     -3.357887    1.941961    1.081950
C     -2.565578    0.792265    1.025100
C      1.281867   -1.791449    0.883542
C     -1.706562    3.163450   -0.062997
C      2.945272   -0.162555   -0.230757
C      2.500384    2.365439   -1.231275
C     -2.935275    3.116787    0.544061
C     -1.304229    0.803940    0.410990
C      3.999124    0.562307   -0.755356
C      3.768301    1.822547   -1.252051
C     -1.275485   -1.544437   -0.419302
C      1.672896    0.356896   -0.197434
C     -0.940599    2.025507   -0.110382
C      1.460013    1.645979   -0.711727
C     -0.697544   -0.466866    0.486799
Br     5.719619   -0.231720   -0.759507
F     -3.738856    4.205990    0.623095
F      4.782500    2.546286   -1.767689
N     -2.671795   -1.682812   -0.095946
N      0.776932   -0.557430    0.373596
O      0.238800    2.307339   -0.756027
H      1.162071   -2.603816   -1.157693
H      1.243854   -3.836206    0.196027
H     -0.972474   -3.232818    0.844695
H     -1.008695   -3.580743   -0.924964
H     -4.335135    1.913101    1.562781
H     -2.993251   -0.076284    1.494904
H      2.157229   -1.864155    1.472733
H      0.552290   -2.048812    1.755289
H     -1.381438    4.088623   -0.482568
H      3.114796   -1.143663    0.136330
H      2.332340    3.355915   -1.624735
H     -1.196528   -1.234598   -1.468970
H     -0.893141   -0.868129    1.533103
H     -2.736505   -2.343222    0.725107
H     -3.256350   -2.007117   -0.893427
