93

C      9.479132    2.422661    1.296754
C      6.378715   -2.123387   -0.811100
C     -6.465876    2.329197    1.069534
C     -6.580601    2.790485   -0.213414
C     -4.978995   -3.321125   -0.512439
C     -5.960879    1.093255    1.289310
C     -5.719177   -2.272247    0.237987
C     -6.177751    1.975170   -1.213917
C      2.467912    1.349238    0.199554
C      1.052021   -0.657534    0.006183
C      3.747586    1.870705    0.151212
C     -0.101096   -0.047550    0.226295
C     -3.604152   -3.614648   -0.028772
C      7.059467    1.644669    0.910702
C      6.799429    2.258938   -1.156910
C      8.243209    2.239801    0.482285
C      2.352930    0.002489   -0.016574
C     -5.530103    0.216560    0.276057
C     -4.948171   -1.073153    0.603865
C     -5.650265    0.684903   -0.997447
C      4.856643    1.149352   -0.089891
C     -1.370274   -0.780056    0.232515
C     -3.476626   -1.180112    0.399438
C      4.708380   -0.247264   -0.311071
C     -5.293448   -0.108529   -2.160273
F     -3.996617   -0.587494   -2.180628
F     -5.241752    0.778885   -3.293836
F     -6.237680   -1.010138   -2.598941
N      8.039183    2.599468   -0.783341
N      3.425726   -0.737350   -0.257293
N     -2.574680   -0.218092    0.469276
N     -1.579935   -2.073724    0.024258
N      6.185205    1.673603   -0.131120
N     -2.903325   -2.323231    0.129801
O      5.755833   -0.972618   -0.548530
C     -1.826487   -2.080175    1.250050
C     -4.059076    1.986495   -0.342249
C     -3.059779    1.994126    0.605106
C     -4.179330    0.896637   -1.179818
C      4.280518    0.446313   -1.788636
C      4.920323    0.665643   -0.597323
C     -2.172649    0.953840    0.750389
C     -3.291454   -0.141511   -1.032410
C      2.980783    0.040194   -1.737926
C      4.245239    0.473068    0.576776
C     -1.328663   -1.278069    0.067172
C     -2.288259   -0.150353   -0.092325
C      2.235563   -0.174532   -0.573436
C      2.897895    0.051971    0.619926
C      0.852170   -0.606068   -0.664241
C      2.314085   -0.107744    1.911186
N      0.023696   -0.855245    0.233163
O      0.345648   -0.775749   -1.985660
O      3.036758    0.135382    2.934556
O      1.051114   -0.496753    2.192919
H      9.167065    2.633458    2.325225
H     10.029343    3.285986    0.873244
H     10.140926    1.538962    1.201517
H      7.417347   -1.935465   -1.202186
H      5.886621   -2.699529   -1.634260
H      6.435231   -2.785989    0.086552
H     -6.792017    2.993479    1.864500
H     -6.967411    3.764165   -0.462571
H     -4.899872   -3.032129   -1.578095
H     -5.624663   -4.243726   -0.533714
H     -5.885089    0.757238    2.309652
H     -6.092154   -2.828120    1.180295
H     -6.666521   -2.007224   -0.253408
H     -6.262551    2.318501   -2.254781
H      1.610247    1.999979    0.405098
H      0.965207   -1.737667   -0.168447
H      3.866139    2.939106    0.319438
H     -0.118056    1.017950    0.399069
H     -3.615351   -4.182663    0.899329
H     -3.054694   -4.131929   -0.852687
H      6.863331    1.238212    1.879534
H      6.408204    2.463847   -2.153213
H     -4.971249   -1.097570    1.771794
H     -2.650352   -2.734683    0.872923
H     -1.060048   -2.714342    1.698164
H     -2.315138   -1.396827    1.992459
H     -4.730566    2.824945   -0.418312
H     -2.949767    2.853639    1.279956
H     -4.962994    0.898722   -1.917388
H      4.802566    0.594340   -2.754646
H      5.956151    0.989409   -0.628942
H     -1.393542    0.981568    1.503471
H     -3.385959   -0.990049   -1.685350
H      2.465178   -0.136261   -2.672436
H      4.775520    0.654137    1.521034
H     -1.372214   -1.966391   -0.818506
H     -0.662991   -0.603497   -2.139646
H      0.506064   -0.232179    3.019999
