32

C      1.206227   -2.538011    0.853979
C     -4.539425    0.781050   -1.177938
C     -4.455145    1.159868    0.141342
C     -3.466385    0.116212   -1.744697
C     -3.340790    0.890210    0.884096
C      3.068793   -0.376712    0.995647
C      1.915909    0.822708   -0.662421
C      3.952009    0.693992    1.169451
C      2.787974    1.896911   -0.500188
C      1.080964   -1.435012   -0.140232
C      2.049012   -0.328525    0.087126
C      3.802003    1.837904    0.409322
C     -2.333958   -0.164540   -1.011160
C     -2.273250    0.231287    0.328175
C     -1.101139   -0.827117   -1.341934
C     -0.976327   -0.198249    0.826536
Br     4.968801    3.337061    0.592271
N     -0.235836   -0.860702   -0.208946
O     -0.841935   -1.309552   -2.497139
O     -0.552790   -0.019815    1.997661
H      2.244485   -2.895844    0.858444
H      0.571366   -3.378934    0.513290
H      0.915238   -2.275932    1.876604
H     -5.404250    0.978985   -1.790259
H     -5.287211    1.681950    0.601525
H     -3.486981   -0.202473   -2.782514
H     -3.261900    1.181402    1.918402
H      3.202487   -1.251939    1.593590
H      1.108587    0.875850   -1.389922
H      4.756120    0.668689    1.878841
H      2.600953    2.770041   -1.143098
H      1.326394   -1.860761   -1.135853
