69

C     -0.591501   -3.836162    0.319485
C      2.476378    1.129758    0.882930
C      0.199435   -2.747466    0.027968
C     -1.958108   -3.713172    0.197545
C      2.926462   -0.271774    0.419679
C      1.079490    0.988045    1.348266
C     -0.628495    2.725162    0.549098
C     -3.113167    1.925822   -0.460892
C     -0.297377   -1.558622   -0.373782
C     -1.660410    3.623245    0.501126
C     -2.479570   -2.500606   -0.212392
C     -2.899332    3.231314   -0.000547
C      2.075302   -0.734445   -0.748099
C     -0.872131    1.450603    0.089148
C     -2.094076    1.031239   -0.415488
C      0.649480   -0.470761   -0.671278
C     -1.689125   -1.408876   -0.504493
Br    -1.380251    5.389248    1.121438
F     -3.844715   -2.370017   -0.338037
F     -3.934711    4.087039   -0.062518
N      2.680987    0.042385   -1.868943
N      0.266279    0.641073    0.210233
O     -2.416931   -0.260596   -0.904266
C     -0.524066   -1.686750   -0.696621
C     -1.274463   -1.282160    1.586737
C      3.803757   -0.144123   -0.900085
C      2.806429    0.102338   -1.850719
C      3.498352   -0.152058    0.444705
C      1.504257    0.340686   -1.455293
C      2.200745    0.086806    0.812151
C     -2.483430   -0.307342   -0.276427
C      1.185011    0.335406   -0.108827
C     -0.208750    0.591195    0.301019
C     -1.087920   -0.621112    0.231063
O     -2.248474    3.247338    1.301684
O     -2.962646    2.705529   -1.125574
O     -3.060822    0.692398    0.508742
O     -0.697041    1.671834   -0.417836
P     -2.241451    2.127044    0.070183
H     -0.140840   -4.789058    0.644505
H      3.198962    1.448379    1.654972
H      2.562096    1.762534   -0.032102
H      1.260464   -2.886597    0.143210
H     -2.600024   -4.557873    0.421600
H      2.801006   -0.915403    1.315965
H      3.979496   -0.289551    0.144102
H      0.697709    1.528976    2.169148
H      1.076655   -0.045922    1.873542
H      0.366167    2.921077    0.908921
H     -4.071714    1.620656   -0.849780
H      2.399886   -1.761700   -0.994615
H      0.344871   -0.165318   -1.730674
H      2.019869    0.055983   -2.674753
H      3.611484   -0.318618   -2.100222
H     -1.053390   -2.630154   -0.430239
H     -0.821795   -1.489042   -1.765857
H      0.554571   -1.826682   -0.574383
H     -1.674077   -2.302255    1.397831
H     -1.983684   -0.665703    2.207640
H     -0.291749   -1.309876    2.065413
H      4.806808   -0.324959   -1.258876
H      3.035799    0.110782   -2.910054
H      4.305830   -0.347691    1.138009
H      0.759431    0.527374   -2.216788
H      1.962903    0.080038    1.870662
H     -3.057806   -1.274410   -0.177333
H     -2.422488   -0.023536   -1.346427
H     -0.175955    0.912272    1.369488
H     -2.153888    2.856813    2.206011
