52

C     -5.144921   -1.514712    0.237457
C     -3.206692   -2.382503    1.463818
C     -3.313148   -2.488470   -1.030607
C     -0.176913    2.665010   -1.649170
C      0.888318    1.648791   -1.224890
C      3.478476    0.270568   -0.646737
C      3.201825   -1.622028    0.921708
C      4.793076   -0.544207   -0.723376
C      4.682874   -1.591859    1.235630
C      1.259282   -0.225901    0.370182
C     -1.715879    2.044679    0.134833
C     -0.861808    3.152199   -0.404930
C      0.521862    1.013723    0.084454
C     -1.606767   -0.399072    0.148134
C     -3.657195   -1.654268    0.206852
C      2.724824   -0.199699    0.545192
N     -1.661417    4.349487   -0.677427
N     -0.903112    0.806819    0.118999
O     -1.032928   -1.498003    0.148462
O      3.117629    0.576753    1.652716
O      5.316740   -0.541347    0.567535
O     -2.991988   -0.412756    0.178174
H     -5.571674   -2.524807    0.475966
H     -5.503576   -0.845820    1.049766
H     -5.581730   -1.224209   -0.736790
H     -4.091228   -2.814810    1.984702
H     -2.487886   -3.201995    1.196007
H     -2.735161   -1.672122    2.173038
H     -2.557164   -3.258840   -0.757383
H     -4.211889   -3.065951   -1.379097
H     -3.012232   -1.848754   -1.866690
H      0.224466    3.453450   -2.283098
H     -0.931613    2.100235   -2.226820
H      0.874405    0.821482   -1.985189
H      1.828628    2.165711   -1.281494
H      3.847042    1.318609   -0.548214
H      3.003279    0.120540   -1.621754
H      2.633225   -1.893328    1.833350
H      2.930030   -2.303441    0.113011
H      5.484482   -0.047511   -1.403833
H      4.582312   -1.571658   -1.057628
H      5.119711   -2.532000    0.838788
H      4.846061   -1.507409    2.311704
H      0.804436   -0.679006    1.300912
H      0.992621   -0.946364   -0.481890
H     -2.553930    1.841962   -0.563398
H     -2.073648    2.238495    1.167337
H     -0.060991    3.484509    0.303946
H      0.749021    1.791464    0.919867
H     -1.022452    5.160660   -0.720625
H     -2.307582    4.443695    0.138191
H      3.070896    1.544009    1.450308
