102

C      9.506045    2.527862   -1.473352
C      4.828992   -2.627534    0.495314
C     -4.934317    2.768908    0.806837
C     -5.809443    3.090643   -0.197002
C     -4.889752   -2.998873    1.777577
C     -4.570814    1.449098    1.008678
C     -5.187528   -1.535299    1.743636
C     -6.310997    2.100159   -0.985394
C      2.695141    1.811741   -0.202859
C      0.783780    0.251259    0.099835
C      4.055489    2.047058   -0.271268
C      0.374167   -0.994627    0.315212
C     -3.845482   -3.461615    0.814030
C      7.032563    1.951533   -1.048599
C      7.263788    0.628259    0.641880
C      8.371891    1.860306   -0.771969
C      2.207093    0.543500    0.019928
C     -5.064021    0.420159    0.223406
C     -4.687847   -0.972746    0.426441
C     -5.941420    0.762666   -0.779380
C      4.953676    1.009662   -0.116698
C     -1.025827   -1.314000    0.399235
C     -3.216891   -1.193599    0.428701
C      4.448273   -0.243533    0.103973
C     -6.528001   -0.273710   -1.678902
F     -7.260103   -1.218793   -0.965612
F     -7.468330    0.326044   -2.523941
F     -5.596320   -0.841154   -2.515035
N      8.500444    1.032925    0.283077
N      3.123834   -0.445184    0.165951
N     -2.096864   -0.469666    0.284789
N     -1.518791   -2.554345    0.613760
N      6.363870    1.193766   -0.177466
N     -2.818816   -2.461488    0.627685
O      5.308479   -1.324998    0.266792
C      2.990902    1.084163    1.958657
C      1.627943    2.146618    0.218113
C      3.808624    1.130378   -0.331198
C     -3.637800    0.351862    1.029784
C     -3.191716    2.208670   -0.481037
C     -1.571507    1.636916    1.244881
C      0.804079   -2.001003   -1.049639
C     -0.668753   -1.836150   -1.413996
C      1.519456   -2.650779   -2.144154
C     -1.314690   -3.149385   -1.281948
C      1.908428   -0.328598    0.297932
C     -1.902687    0.162041   -0.736333
C      2.545037    1.010249    0.526694
C     -2.538933    1.071480    0.254551
O      2.387251   -2.032079   -2.828539
O      1.309966   -3.964587   -2.506410
O     -1.135883   -4.112535   -2.057034
O     -2.192309   -3.370890   -0.232024
O      1.828901   -1.161461    1.239021
O     -1.924234    0.429763   -1.967342
O      1.394926   -0.691765   -0.931396
O     -1.261347   -1.010474   -0.371015
H     10.392201    1.900046   -1.552398
H      9.735622    3.460162   -0.912887
H      9.176206    2.852838   -2.486347
H      5.493552   -3.185702    1.213267
H      4.724446   -3.145426   -0.459973
H      3.798776   -2.550666    0.949184
H     -4.552416    3.576889    1.416807
H     -6.135168    4.114984   -0.406631
H     -5.841017   -3.547322    1.585937
H     -4.575506   -3.288862    2.803436
H     -3.887782    1.225061    1.796965
H     -6.245892   -1.292169    1.928992
H     -4.602005   -1.007506    2.541834
H     -7.006956    2.339731   -1.786614
H      2.025681    2.638449   -0.327128
H      0.080375    1.058014   -0.017884
H      4.442477    3.052268   -0.447913
H      1.106983   -1.781592    0.429144
H     -3.414524   -4.415728    1.229797
H     -4.293784   -3.775568   -0.167169
H      6.613670    2.552282   -1.854026
H      6.989779   -0.043596    1.452904
H     -5.070676   -1.580968   -0.418163
H      3.881044    1.726131    2.013002
H      2.218590    1.517610    2.627143
H      3.298241    0.058296    2.311725
H      1.200076    2.555244    1.157139
H      0.838061    1.879464   -0.514897
H      2.239371    2.969105   -0.238799
H      3.554408    1.497409   -1.345931
H      4.515960    1.777033    0.211695
H      4.287033    0.134289   -0.433545
H     -3.959203   -0.491506    0.376179
H     -4.485929    1.025089    1.265490
H     -3.175167   -0.031258    1.958464
H     -2.871469    2.264683   -1.548493
H     -4.296427    2.102491   -0.505418
H     -3.001265    3.183417    0.041830
H     -1.187132    2.638532    0.929601
H     -2.092084    1.798328    2.199176
H     -0.724896    0.935945    1.441062
H      0.860573   -2.518232   -0.102159
H     -0.819686   -1.389781   -2.400614
H      1.569548   -4.286444   -3.435485
H     -2.635303   -4.268279   -0.062603
