62

C     -0.208575    4.354332    0.974876
C     -2.205660    3.514373    2.141699
C     -2.357954    3.952517   -0.264505
C     -4.547345   -3.337171    0.997555
C     -3.052180   -4.824807   -0.197908
C     -4.280908   -3.143772   -1.483617
C      3.854312   -1.515740    1.195680
C      4.604960   -0.300985    1.548906
C      3.629920    0.468650   -1.521446
C      1.924482   -2.318439   -0.228994
C      3.226226    2.502969   -2.572427
C      2.590263    0.865039    1.721946
C      2.422576   -1.316011    0.794112
C      3.947572    1.328627   -2.499478
C      2.658193    0.723146   -0.648442
C     -0.302820   -0.564949    0.257263
C     -2.036552    1.157531    0.462622
C     -2.714111   -1.157712    0.109247
C     -1.448195    3.461414    0.834475
C     -3.602505   -3.411190   -0.179443
C      2.042798    0.086702    0.486380
N      5.021995    1.106684   -3.491788
N      0.631081    0.264462    0.453700
N     -1.687341   -0.201525    0.261334
O     -3.255971    1.536499    0.480601
O     -3.917184   -0.755036    0.105218
O      3.947396    0.899312    1.522139
O     -1.042930    2.112183    0.640951
O     -2.503367   -2.519277   -0.035944
S      2.083397    2.284635   -1.164989
S      0.098853   -2.277129   -0.058035
H      0.032524    4.689309   -0.053003
H      0.622739    3.716461    1.344421
H     -0.486042    5.188241    1.636901
H     -2.486493    2.492182    2.450011
H     -1.544904    3.918431    2.919023
H     -3.132989    4.110196    2.016459
H     -3.433996    4.006659    0.069975
H     -2.274020    3.351141   -1.189744
H     -2.083407    4.994877   -0.531163
H     -4.073190   -3.010906    1.921791
H     -5.372140   -2.626273    0.707331
H     -5.046206   -4.309589    1.210794
H     -2.498186   -5.049897   -1.115111
H     -2.360777   -4.908600    0.689131
H     -3.888042   -5.508698   -0.006190
H     -3.593002   -2.536447   -2.128896
H     -4.544786   -4.107805   -2.011638
H     -5.199626   -2.535452   -1.281728
H      4.343545   -2.073720    0.352952
H      3.937591   -2.242944    2.057155
H      5.062585   -0.379831    2.578384
H      5.522277   -0.267278    0.876648
H      4.182919   -0.501527   -1.430978
H      2.240782   -3.341377    0.049102
H      2.251268   -2.129203   -1.245339
H      3.247629    3.383656   -3.241368
H      2.279289    0.348136    2.636974
H      2.188244    1.878713    1.609001
H      1.829217   -1.585221    1.726354
H      5.942148    0.907495   -3.072307
H      4.814621    1.153941   -4.515901
