21

C      1.594329   -1.905944   -0.371618
C      2.595039   -0.982314   -0.569835
C      0.369035   -1.468130    0.059548
C      2.333866    0.338543   -0.328441
C      0.054176   -0.129428    0.317204
C      1.057568    0.775737    0.120161
C     -1.320373    0.178066    0.720054
C     -2.358750   -0.568595   -0.050233
N      0.952611    2.162813    0.342932
O     -1.643665    1.517418    0.694043
O     -2.433187   -1.794654   -0.223421
O     -3.377770    0.183008   -0.651652
O      0.170599    2.766145    1.266833
O      1.656174    2.940373   -0.395880
H      1.792016   -2.961957   -0.556648
H      3.568674   -1.303424   -0.912671
H     -0.385563   -2.219702    0.224066
H      3.089690    1.071237   -0.473862
H     -1.457467   -0.143589    1.794663
H     -1.970494    1.835630   -0.185390
H     -4.286507   -0.291233   -0.819853
