21

C     -1.724614   -1.765551   -0.874859
C     -2.394126   -1.335676    0.251015
C     -0.610691   -1.095617   -1.254241
C     -1.947861   -0.260468    0.965417
C     -0.131574    0.014310   -0.530927
C     -0.806010    0.432351    0.579173
C      1.149334    0.620333   -0.905459
C      2.212654    0.544980    0.110022
N     -0.473349    1.578634    1.367859
O      1.611178    0.180964   -2.140362
O      3.391958    0.308620   -0.347387
O      2.135655    0.684314    1.460797
O      0.159482    2.670737    0.828923
O     -0.781954    1.557093    2.596566
H     -2.129453   -2.618352   -1.395119
H     -3.289409   -1.834907    0.599147
H     -0.062434   -1.401182   -2.127329
H     -2.493414    0.055392    1.846351
H      1.000186    1.743422   -1.073846
H      2.524449   -0.201512   -2.085457
H      2.659995    0.122115    2.129714
