62

C     -3.373954    3.005939   -1.101511
C     -3.476914    2.705209    1.375656
C     -1.842499    4.223032    0.374731
C     -5.043095   -3.518377    0.353225
C     -3.137920   -4.284509   -1.017384
C     -2.848050   -4.027635    1.421078
C      4.127965    0.224858   -2.166326
C      4.320827    1.688195   -2.462447
C      4.148560    0.726547    1.130528
C      2.859820   -1.516027   -1.017210
C      3.463769   -0.040247    3.195058
C      2.476949    2.232652   -1.163025
C      2.763788   -0.129414   -1.661661
C      4.480634    0.426143    2.399325
C      2.926475    0.588307    0.662946
C      0.240786   -0.461637   -0.323115
C     -2.006957    0.541766   -0.051059
C     -1.753828   -1.872929   -0.081960
C     -2.540566    2.903738    0.176791
C     -3.546244   -3.444167    0.173534
C      2.267722    0.841304   -0.635999
N      5.806429    0.541151    2.992927
N      0.803859    0.683748   -0.461670
N     -1.182990   -0.588738   -0.159363
O     -3.277813    0.326376   -0.062098
O     -0.973410   -2.881885   -0.167631
O      3.815722    2.502170   -1.485518
O     -1.599922    1.850948    0.078362
O     -3.106801   -2.103249    0.082827
S      2.032452   -0.047004    2.113415
S      1.246145   -1.921339   -0.310183
H     -3.222787    4.002077   -1.603446
H     -4.452939    2.948046   -0.873080
H     -3.096848    2.243509   -1.845931
H     -4.517639    2.937777    1.041843
H     -3.442779    1.696244    1.794050
H     -3.170793    3.393855    2.178905
H     -0.949280    4.333001   -0.256628
H     -2.540898    5.046525    0.058966
H     -1.596353    4.410120    1.466590
H     -5.508264   -2.540842    0.149705
H     -5.263951   -3.862699    1.404070
H     -5.452925   -4.275818   -0.348513
H     -3.038992   -3.681596   -1.923433
H     -2.202967   -4.876069   -0.795052
H     -3.932450   -5.046588   -1.217911
H     -2.396750   -3.242049    2.027739
H     -3.589684   -4.542401    2.053073
H     -2.068088   -4.738330    1.117017
H      4.944985   -0.129146   -1.539882
H      4.259778   -0.320645   -3.155113
H      5.429684    1.858338   -2.486365
H      3.962090    1.916693   -3.489012
H      4.966176    1.123226    0.447642
H      3.677064   -1.504888   -0.256514
H      3.116453   -2.263352   -1.769352
H      3.453548   -0.352738    4.255651
H      2.171943    2.967311   -0.390416
H      1.834361    2.359285   -2.069246
H      2.067308   -0.185201   -2.545427
H      6.113671    1.454097    3.320999
H      6.376387   -0.302673    3.046832
