42

C      6.071910   -0.697613    1.020877
C      4.008846    2.432185    1.319353
C     -2.453116   -1.604885   -2.419225
C      5.112033    1.599858    1.359818
C      2.753447    1.974886    0.939303
C     -3.576663   -1.195593   -1.507998
C      1.284736    0.187513    0.196896
C     -2.737047    0.168572    1.156199
C     -1.116611   -1.059954   -2.001668
C      0.196045   -0.221878   -0.130678
C     -3.988558    1.039634    0.990145
C      3.690293   -0.177456    0.629906
C      4.943015    0.271857    1.007478
C      2.585190    0.654776    0.589003
C     -2.129680    0.322479   -0.244743
C     -3.359694    0.241207   -1.103195
C     -1.119414   -0.742872   -0.536629
N     -4.458064    0.777597   -0.350141
O     -1.422744   -1.921593    0.163755
Cl     0.687423    0.000000    0.000000
H      5.694785   -1.731334    1.270159
H      6.793586   -0.442057    1.812094
H      6.539850   -0.798347    0.012433
H      4.145106    3.474129    1.596595
H     -2.361674   -2.710812   -2.522777
H     -2.659647   -1.231401   -3.452462
H      6.099185    1.969894    1.661143
H      1.883559    2.626403    0.906257
H     -4.539548   -1.283441   -2.076390
H     -3.611083   -1.893576   -0.657342
H     -3.068613   -0.879249    1.310165
H     -2.073819    0.550654    1.929709
H     -0.321614   -1.807295   -2.181695
H     -0.841646   -0.164172   -2.603873
H     -4.731492    0.847460    1.765728
H     -3.618681    2.086758    1.010813
H      3.528589   -1.203483    0.350956
H     -1.689353    1.359556   -0.275726
H     -3.174709    0.820755   -2.032866
H     -5.309790    0.185559   -0.372081
H     -0.966914   -1.824720    1.054668
H     -0.687423    0.000000    0.000000
