44

C      0.807505    3.440746   -1.149289
C     -2.795014    1.039039   -1.017556
C     -2.839410   -2.033771    1.906231
C     -2.415929   -2.409408   -0.341406
C      4.286330   -2.458580   -0.460623
C     -0.211386    2.372575   -1.495202
C      2.562605    0.718338    1.770922
C      1.404660    1.271428    1.297626
C      3.103718   -0.322034    1.029126
C      1.340031   -0.191485   -0.572856
C     -1.701947   -0.371509    0.671446
C     -1.503215    0.394606   -0.631527
C      0.784092    0.838580    0.145533
C      2.508024   -0.776932   -0.130605
C     -0.481423    1.482202   -0.300684
Cl    -1.137111    2.388245    1.069903
N     -2.680803   -1.394190    0.617778
O      3.095663   -1.811098   -0.837254
Cl     0.689080    0.000000    0.000000
H      1.618912    3.470690   -1.929914
H      0.345949    4.459703   -1.240826
H      1.281930    3.324536   -0.184310
H     -3.114137    0.656574   -2.032948
H     -2.787879    2.126252   -1.071780
H     -3.583702    0.803562   -0.251698
H     -2.591063   -1.386581    2.766003
H     -3.916506   -2.317189    2.013656
H     -2.178424   -2.938136    1.986445
H     -2.054812   -3.324412    0.196520
H     -1.688491   -2.072138   -1.100270
H     -3.355086   -2.704572   -0.834040
H      4.308178   -2.649603    0.646929
H      5.185860   -1.896851   -0.765604
H      4.293366   -3.449202   -0.973374
H      0.285664    1.708836   -2.258069
H     -1.115025    2.762688   -1.964942
H      3.018556    1.095761    2.666406
H      0.947650    2.088596    1.832111
H      4.000819   -0.773264    1.380556
H      0.885389   -0.561824   -1.476636
H     -2.048039    0.350933    1.475220
H     -0.710256   -0.717534    0.999733
H     -1.155241   -0.233574   -1.450732
H     -0.689080    0.000000    0.000000
