48

C      4.054278   -1.261832   -2.363818
C     -6.359922    1.034245   -1.839441
C     -5.261804    1.891372   -1.894929
C     -6.265830   -0.105853   -1.068271
C     -4.111770    1.597437   -1.191156
C     -5.104704   -0.373538   -0.376305
C      2.155307   -0.210704   -0.540983
C      6.324779    1.430009   -0.168456
C      6.150014    0.994552    1.980988
C      1.765630    1.089225    1.409586
C     -3.029844   -0.070869    1.810116
C     -2.609778   -2.183602    0.929982
C     -4.003281    0.461138   -0.415959
C      5.426397    1.072935    0.818177
C      1.254536    0.327940    0.381903
C     -2.780258    0.126552    0.346541
C     -2.147076   -1.152689   -0.082816
C      3.496479    0.055302   -0.362179
C      3.985111    0.822354    0.677368
C     -0.670134   -1.017822   -0.004045
N     -3.092757   -1.478356    2.071841
N      3.092560    1.325324    1.547116
N      7.533315    1.560031    0.378011
N      7.419630    1.297439    1.665658
N     -0.130928    0.115043    0.287105
O      0.186542   -2.090118   -0.236950
O      4.416733   -0.465244   -1.261773
H      3.339790   -0.722172   -3.013397
H      3.671983   -2.261401   -2.079712
H      4.986127   -1.429393   -2.958364
H     -7.272939    1.244162   -2.383191
H     -5.358331    2.764592   -2.496560
H     -7.131866   -0.774798   -1.029006
H     -3.287068    2.284300   -1.260422
H     -5.099651   -1.297404    0.216688
H      1.787691   -0.824432   -1.376378
H      6.039966    1.571437   -1.217573
H      5.768640    0.737124    2.965914
H      1.119520    1.537167    2.161100
H     -2.143442    0.330759    2.361082
H     -3.929314    0.488516    2.171872
H     -1.721335   -2.793964    1.238613
H     -3.336430   -2.900864    0.498734
H     -2.040835    0.954028    0.149962
H     -2.461443   -1.472421   -1.109077
H     -4.016427   -1.809912    2.423117
H      8.403728    1.822907   -0.133531
H      0.988411   -2.238505    0.392807
