44

C      1.107236   -3.195535   -0.524506
C     -3.310014   -0.883517   -0.302924
C     -5.257525    0.170057    0.722930
C     -3.824972    1.482016   -0.758192
C      0.505393   -1.788310   -0.607592
C      5.529717    1.177249   -0.795709
C      5.696747    0.073232    0.038902
C      4.239978    1.527014   -1.133766
C      4.632923   -0.648359    0.514557
C      3.123394    0.818961   -0.671358
C      0.962692   -1.015417    0.609802
C      3.362988   -0.263653    0.151571
C      0.414422    0.382846    0.605804
C      0.733945    1.157859   -0.594742
C     -1.741772    1.059064    1.475632
C     -3.799154    0.392054    0.299573
N      1.885490    1.342592   -1.136644
N     -1.015032    0.309370    0.751556
O     -0.294663    1.795454   -1.275259
O     -1.195247    2.080747    2.240235
O      2.365549   -1.072425    0.696247
O     -3.119870    0.793617    1.455897
H      1.554896   -3.455477   -1.511167
H      0.344114   -3.954945   -0.308682
H      1.916457   -3.251269    0.216721
H     -2.861380   -1.505988    0.485945
H     -2.633778   -0.728893   -1.169549
H     -4.178641   -1.446664   -0.701220
H     -5.225060   -0.655867    1.468800
H     -5.805805   -0.159668   -0.170455
H     -5.678146    1.092404    1.179762
H     -3.845609    2.475918   -0.290580
H     -2.998031    1.351158   -1.493446
H     -4.771295    1.359982   -1.323167
H      0.818340   -1.275976   -1.549062
H     -0.599581   -1.864138   -0.606505
H      6.378956    1.739338   -1.165000
H      6.715551   -0.204932    0.307371
H      4.068815    2.391570   -1.789749
H      4.826487   -1.491761    1.156068
H      0.555625   -1.535759    1.500220
H      0.874608    0.940904    1.473897
H     -0.153374    1.968843   -2.262561
H     -0.305371    2.516304    1.979966
