45

C     -0.391809    3.661653   -1.000100
C     -2.297619    1.728229    0.513097
C     -3.658020   -0.834053    1.390434
C     -2.211394   -2.636347    1.071348
C      4.781021   -1.569014    1.627111
C      0.485613    2.465741   -0.866494
C      2.162483   -1.726002   -1.560039
C      1.120455   -0.840901   -1.674411
C      3.030807   -1.657498   -0.484657
C      1.784961    0.188593    0.334456
C     -1.565533   -0.580875    0.148502
C     -1.124835    0.864850    0.326126
C      0.911024    0.124590   -0.741253
C      2.845549   -0.692164    0.476538
C     -0.198940    1.137500   -0.802104
N     -2.298931   -1.194588    1.158622
O     -0.903912    1.021518   -2.001214
O      3.722152   -0.641120    1.542307
Cl     0.683263    0.000000    0.000000
H     -1.386465    3.378828   -1.382696
H      0.012747    4.344058   -1.829528
H     -0.494388    4.279144   -0.105923
H     -3.031366    1.706297   -0.309929
H     -2.073712    2.800211    0.723313
H     -2.767527    1.419577    1.504440
H     -4.315038   -1.777047    1.367235
H     -3.890749   -0.417001    2.386163
H     -4.131168   -0.214453    0.596408
H     -2.215875   -2.874145   -0.035483
H     -3.122635   -3.129147    1.464989
H     -1.279830   -3.051438    1.492860
H      5.390726   -1.594449    0.701449
H      4.393305   -2.615355    1.760303
H      5.457837   -1.343998    2.484610
H      1.143326    2.457770   -1.795133
H      1.253858    2.581633   -0.057307
H      2.312643   -2.479059   -2.306822
H      0.449887   -0.901275   -2.514118
H      3.854031   -2.383484   -0.426226
H      1.677849    0.939660    1.127881
H     -2.007058   -0.686270   -0.882085
H     -0.576251   -1.145130    0.069459
H     -0.534796    0.898858    1.299579
H     -0.312424    0.986103   -2.784934
H     -0.683263    0.000000    0.000000
