81

C     -4.323284    2.943067    3.465961
C      9.228965    1.115905    0.982093
C     -3.920695    3.667049    2.341039
C     -5.129428    1.796790    3.244098
C      9.482569    0.009819    0.197574
C      7.973784    1.641655    1.039233
C     -4.160221   -5.852230    1.000633
C     -3.414137   -4.915925    1.642646
C     -0.285504    1.419845   -3.153386
C     -0.605455    2.661160   -2.368879
C     -4.264228    3.312953    1.051866
C     -5.459917    1.455953    1.938403
C      8.395775   -0.530662   -0.517423
C      6.911188    1.084287    0.310934
C     -4.847302   -5.681683   -0.141048
C      1.038413    0.792976   -2.889593
C     -3.375075   -3.662650    1.020836
C      0.209589    2.775443   -1.133659
C      1.046791    1.546629    0.859259
C      1.886630    0.356982    1.348200
C     -1.664671   -1.572014   -0.483040
C      0.818883   -1.411118   -0.444862
C     -2.025281    0.997904   -0.447035
C     -5.360024   -4.206217   -1.921472
C     -5.286381    1.612605   -0.460369
C      6.052731   -0.757716   -1.206721
C     -5.020981    2.203876    0.943803
C      7.098467   -0.012438   -0.478710
C     -4.804227   -4.391777   -0.773574
C     -0.516880   -0.845805   -0.451075
C      1.474009    0.795304   -1.492180
C     -0.733777    0.577773   -0.432955
C     -4.038587   -3.387891   -0.141753
C     -2.941017   -1.216991   -0.504338
C      1.932098   -0.500762   -0.933473
C     -3.167512    0.239778   -0.481043
C      4.082262   -0.420267    0.290330
C      0.475869    1.388413   -0.505114
N     -5.936312   -4.018450   -3.159972
N     -4.059249   -2.071984   -0.666277
N      2.699491   -0.134498    0.285893
O      4.721193   -0.602477    1.307172
O     -4.417848    0.572733   -0.501952
O      4.742950   -0.473795   -0.976911
H     -4.059693    3.224065    4.470166
H     10.082572    1.564783    1.536293
H     -3.305613    4.508821    2.546306
H     -5.462616    1.208434    4.100251
H     10.460734   -0.407646    0.146788
H      7.837633    2.527128    1.663737
H     -4.205248   -6.858267    1.496223
H     -2.901172   -5.139741    2.553939
H     -0.338825    1.727473   -4.265664
H     -1.161332    0.688162   -3.072175
H     -0.568003    3.606072   -3.023170
H     -1.681560    2.620530   -2.137003
H     -3.921861    3.898297    0.210679
H     -6.077240    0.563753    1.788788
H      8.546533   -1.405588   -1.162222
H      5.925902    1.548179    0.349115
H     -5.428130   -6.462712   -0.608553
H      1.826502    1.163077   -3.597394
H      0.870655   -0.305251   -3.250824
H     -2.802715   -2.902773    1.475303
H     -0.137847    3.504499   -0.424849
H      1.226018    3.185822   -1.494609
H      1.587494    2.474311    1.026740
H      0.176441    1.545623    1.578699
H      2.561355    0.784799    2.147888
H      1.259152   -0.395459    1.829900
H     -1.474225   -2.692137   -0.474442
H      0.833120   -2.331148   -1.149291
H      1.041421   -1.842049    0.552669
H     -2.170009    2.100186   -0.340216
H     -6.369417    1.229322   -0.466858
H     -5.213948    2.431988   -1.151807
H      6.324782   -1.870470   -1.332610
H      6.192855   -0.456929   -2.340502
H      2.390381    1.482010   -1.426859
H      2.555651   -1.031713   -1.658584
H     -4.933411   -1.786998   -1.136618
