85

C      0.119877    2.526128    1.327288
C     -8.031834   -2.321161    0.266982
C      6.996351    1.051771    3.353795
C     -7.860489   -1.229053   -0.555562
C     -6.931640   -3.057375    0.688748
C      8.001482    0.349334    2.752175
C      5.689604    0.845011    3.004282
C     -2.599588   -0.172811    5.442739
C     -1.810367   -0.726986    4.465421
C      0.881952    1.263270   -5.171140
C     -0.432065    0.581976   -4.817225
C     -6.586397   -0.881674   -0.950319
C     -5.665809   -2.674422    0.268736
C      7.699584   -0.593005    1.767430
C      5.405372   -0.101844    2.016881
C      1.487722    1.701298   -3.857055
C     -3.335752    0.949469    5.145592
C     -1.782639   -0.135329    3.211669
C     -0.182298   -0.657987   -3.987473
C      1.155620   -1.744150   -2.288288
C      2.039187   -1.564571   -1.079779
C      1.734927    1.597821   -0.856940
C     -1.456633   -0.334660   -1.414747
C     -4.105241   -1.242777   -0.959199
C      6.110902   -1.824314    0.359235
C     -0.388783    1.530297    0.348040
C     -5.469423   -1.585329   -0.554388
C      6.398771   -0.817072    1.400854
C      0.358989    1.070592   -0.710624
C      1.820895    0.450279   -3.074407
C     -0.177095    0.129314   -1.602942
C     -3.298065    1.524927    3.897728
C     -2.517048    0.983228    2.917823
C      2.558689    0.757248   -1.805750
C     -2.184524    0.153303   -0.331503
C     -1.680527    1.075258    0.554328
C      4.319995   -0.594866   -0.709586
C      0.599009   -0.386087   -2.750897
N     -4.065362    2.668416    3.641446
N     -2.461098    1.547390    1.641502
N      2.975464   -0.479476   -1.194818
O      5.137063    0.363366   -0.812625
O     -3.495996   -0.294759   -0.101811
O      4.773842   -1.754824   -0.111451
H      0.737520    2.028092    2.103494
H      0.775584    3.284359    0.856208
H     -0.713439    3.088190    1.797272
H     -9.036172   -2.595568    0.578650
H      7.231792    1.774157    4.109680
H     -8.728072   -0.642255   -0.892788
H     -7.104255   -3.908891    1.333883
H      9.052685    0.516395    3.033291
H      4.846386    1.368961    3.443611
H     -2.633100   -0.631492    6.444603
H     -1.220137   -1.604267    4.658951
H      0.673723    2.100607   -5.845722
H      1.563613    0.507017   -5.603036
H     -0.938452    0.257771   -5.748052
H     -1.011704    1.319460   -4.228554
H     -6.472423   -0.009888   -1.604833
H     -4.850022   -3.294032    0.635512
H      8.549660   -1.109659    1.337525
H      4.381470   -0.278954    1.730615
H      2.459844    2.188604   -4.084192
H      0.823633    2.366503   -3.270643
H     -3.953870    1.381662    5.914163
H     -1.140505   -0.603713    2.449362
H     -1.138487   -1.137042   -3.780788
H      0.372543   -1.373821   -4.657531
H      0.316486   -2.409175   -1.992418
H      1.680151   -2.252483   -3.123996
H      2.603831   -2.512702   -0.940701
H      1.404378   -1.419961   -0.178986
H      1.693820    2.649675   -1.208222
H      2.291399    1.598965    0.105881
H     -1.974917   -1.052574   -2.018219
H     -4.174765   -0.737433   -1.966276
H     -3.498878   -2.141979   -1.100225
H      6.813252   -1.595692   -0.494712
H      6.374477   -2.855729    0.680527
H      2.479112   -0.170401   -3.711090
H      3.449380    1.388537   -2.096855
H     -3.589016    3.531404    3.317243
H     -5.089971    2.636313    3.778540
H     -3.053178    2.405874    1.464662
