82

C     -7.344639    1.372159   -3.167815
C      8.501336    2.206759   -1.502997
C     -7.366965    0.447967   -2.146209
C     -6.153981    1.689913   -3.766871
C      7.390632    2.937238   -1.860345
C      8.430686    1.445541   -0.357781
C     -5.121161    1.801272    4.150849
C     -4.370685    0.702650    3.775814
C      1.235126   -4.930079    1.098506
C      0.443090   -4.954579   -0.165802
C     -6.192220   -0.140829   -1.744418
C     -4.991276    1.091630   -3.352113
C      6.244332    2.895354   -1.078417
C      7.287405    1.411668    0.410530
C      1.578876   -3.531506    1.567723
C     -4.917977    3.004795    3.491299
C     -3.438151    0.812703    2.761380
C     -0.137831   -3.630526   -0.554690
C      1.363939   -2.135341   -1.867106
C      2.352360   -1.036133   -1.817144
C      1.770870   -0.643536    1.620116
C     -1.149600   -1.025426   -0.655944
C     -3.694844   -0.452592   -1.924531
C      4.937117    2.101234    0.884165
C     -4.999319    0.159368   -2.324617
C      6.165728    2.137126    0.067211
C      0.480563   -0.421641    0.923550
C      2.017009   -2.754194    0.374462
C      0.062276   -1.280564   -0.038158
C     -3.980012    3.079241    2.484455
C     -3.218267    2.009634    2.086870
C      2.656402   -1.439423    0.686305
C     -1.921767    0.079409   -0.304898
C     -0.271814    0.674732    1.281346
C     -1.493462    0.956229    0.677732
C      3.634526    0.504271   -0.428584
C      0.807441   -2.489617   -0.491370
Br     0.368851    1.853075    2.646146
N     -3.795339    4.335141    1.824647
N     -2.256703    2.086579    1.054446
N      2.853822   -0.697121   -0.529801
O      3.869373    1.237020   -1.438834
O     -3.140619    0.358596   -0.908651
O      4.178906    0.940069    0.768156
H     -8.271941    1.856048   -3.506039
H      9.408635    2.236541   -2.117065
H     -8.308304    0.205265   -1.681894
H     -6.079362    2.412742   -4.577907
H      7.450910    3.535948   -2.764040
H      9.321028    0.872872   -0.090007
H     -5.853141    1.733104    4.940320
H     -4.531878   -0.242473    4.295546
H      0.783611   -5.537773    1.911887
H      2.224508   -5.427094    0.881848
H     -0.426608   -5.648889    0.006447
H      1.005910   -5.436496   -1.018601
H     -6.223394   -0.856183   -0.950774
H     -4.031905    1.333408   -3.819126
H      5.408995    3.492537   -1.410071
H      7.240250    0.817408    1.299495
H      2.341430   -3.606316    2.362667
H      0.626532   -3.081775    1.933895
H     -5.519050    3.867448    3.798033
H     -2.838206   -0.031155    2.448720
H     -1.002260   -3.442430    0.146269
H     -0.594915   -3.743376   -1.553730
H      0.499798   -1.859503   -2.504906
H      1.826026   -3.058873   -2.310106
H      1.941532   -0.099893   -2.276761
H      3.234217   -1.297207   -2.462879
H      2.255345    0.296042    1.924742
H      1.577165   -1.226450    2.556799
H     -1.553477   -1.660548   -1.431023
H     -3.051843   -0.519394   -2.812095
H     -3.872109   -1.453958   -1.480790
H      4.307364    3.001014    0.662770
H      5.236204    2.211821    1.964107
H      2.716540   -3.364720   -0.239147
H      3.624157   -1.638821    1.220167
H     -3.343187    5.148263    2.308247
H     -4.107147    4.464560    0.850488
H     -2.095465    2.980039    0.554071
