72

C     -4.547931    4.630075   -0.788221
C     -4.409526    2.343899    1.246016
C     -4.776385   -1.740113    2.182403
C     -4.116841    3.532547   -1.692557
C      6.285906    4.047472    0.862383
C      5.588689    4.003270   -0.326139
C      6.700130    2.880159    1.479629
C     -0.402219   -4.275399   -1.796866
C     -0.302881   -4.779597   -0.364671
C      5.285073    2.806621   -0.931300
C      6.385844    1.698645    0.857138
C      0.337641   -2.971002   -1.973116
C     -0.984523   -3.719607    0.513058
C      0.557549   -2.289713    1.740837
C     -4.491185    2.161451   -1.243354
C      1.598671   -1.215145    1.780064
C      0.514777   -0.043832   -1.092791
C     -1.730909    0.821647   -0.517866
C     -2.324913   -1.416828    0.903867
C      5.388201    0.343468   -0.945353
C      5.689991    1.635813   -0.330274
C     -0.788912   -0.181723   -0.428934
C      0.855803   -2.502011   -0.662651
C     -1.096291   -1.307610    0.290012
C      1.493195   -1.116805   -0.756142
C     -2.969668    0.712756    0.100281
C     -3.288479   -0.429772    0.833220
C      3.507007   -0.433545    0.477843
C     -0.154550   -2.441047    0.444286
N     -3.959373    1.740977    0.018559
N      2.183589   -0.925768    0.488805
O      4.181828   -0.241789    1.512197
O     -4.527016   -0.544791    1.454384
O      4.097926   -0.145612   -0.732744
H     -3.695755    5.042188   -0.172501
H     -4.911470    5.488739   -1.433190
H     -5.407207    4.386086   -0.145945
H     -5.530680    2.483039    1.273408
H     -4.219690    1.679037    2.129285
H     -3.966450    3.337924    1.453048
H     -3.963192   -1.804936    2.947590
H     -5.783583   -1.762107    2.626796
H     -4.622964   -2.578238    1.469057
H     -4.611018    3.683294   -2.695827
H     -3.000173    3.571797   -1.814387
H      6.542990    4.974869    1.365753
H      5.299444    4.965704   -0.743916
H      7.249583    2.865452    2.414092
H     -0.031855   -5.080601   -2.463090
H     -1.456494   -4.099216   -2.001148
H     -0.943502   -5.681791   -0.306015
H      0.725668   -4.954977   -0.043306
H      4.743396    2.841307   -1.852779
H      6.708846    0.793203    1.334656
H     -0.216930   -2.219279   -2.546620
H      1.241473   -3.224370   -2.605046
H     -1.973299   -3.543130    0.004413
H     -1.120300   -4.066606    1.546891
H     -0.207596   -2.101484    2.530533
H      1.012800   -3.283568    1.993302
H     -4.208167    1.464568   -2.068051
H     -5.622316    2.112799   -1.241445
H      1.144652   -0.285459    2.197222
H      2.379682   -1.528293    2.507012
H      0.941818    0.938967   -0.839547
H      0.353020   -0.067301   -2.209802
H     -1.546436    1.747820   -1.077525
H     -2.608791   -2.300748    1.488887
H      5.539869    0.407983   -2.048772
H      6.096622   -0.463444   -0.615902
H      1.678177   -3.176731   -0.319733
H      2.209611   -1.199589   -1.621907
