85

C      0.069396    2.407843    1.588984
C     -5.236560   -3.918934    1.334456
C      6.608390    3.539489   -0.138938
C     -5.212784   -2.653046    1.846766
C     -5.038338   -4.157641   -0.004314
C      7.440251    2.533534    0.328780
C      5.663600    3.297894   -1.098967
C     -2.623675    5.497149   -2.427902
C     -1.906358    4.321400   -2.550059
C     -0.203041   -3.739060    2.575501
C     -1.296473   -3.590551    1.528469
C     -4.987607   -1.578180    1.022323
C     -4.814936   -3.067882   -0.814854
C      7.288630    1.271395   -0.204896
C      5.540903    2.026312   -1.608238
C      0.834208   -2.675530    2.487533
C     -3.351060    5.706517   -1.284651
C     -1.901766    3.363957   -1.564560
C     -0.653532   -3.549586    0.180623
C      0.862212   -2.413252   -1.318421
C      2.098266   -1.625715   -1.484442
C      1.506011   -0.020041    1.302054
C     -1.782571   -0.924782   -0.230200
C     -4.556210   -0.570863   -1.158255
C      6.221737   -0.371036   -1.703955
C     -0.590316    1.246024    0.943550
C     -4.788149   -1.790626   -0.316875
C      6.352289    1.007186   -1.164141
C      0.121460    0.039639    0.808010
C      1.340972   -2.497341    1.080980
C     -0.457835   -1.055645    0.224179
C     -3.341071    4.726421   -0.287062
C     -2.630302    3.563625   -0.410123
C      2.235051   -1.294249    0.983527
C     -2.471355    0.257085   -0.094749
C     -1.878754    1.374287    0.501658
C      4.213823   -0.858610   -0.416248
C      0.259002   -2.333355    0.065434
N     -4.115256    4.981421    0.897166
N     -2.627960    2.570928    0.610021
N      2.834364   -1.272437   -0.324455
O      4.860679   -0.547430    0.594966
O     -3.757719    0.386017   -0.535717
O      4.857287   -0.796950   -1.653223
H     -0.525539    2.759066    2.485413
H      1.112441    2.207250    1.856727
H      0.049615    3.284187    0.885798
H     -5.417063   -4.760076    2.000484
H      6.720939    4.525654    0.271152
H     -5.377849   -2.517095    2.929509
H     -5.058000   -5.158423   -0.394069
H      8.176623    2.741976    1.083153
H      5.005383    4.113797   -1.457858
H     -2.620564    6.242594   -3.205763
H     -1.341260    4.177314   -3.462947
H     -0.734112   -3.593442    3.562095
H      0.203812   -4.776424    2.612642
H     -1.939784   -4.483653    1.613722
H     -1.881863   -2.708003    1.779708
H     -4.975864   -0.580923    1.463529
H     -4.656551   -3.234382   -1.878044
H      7.951385    0.479636    0.173551
H      4.787233    1.861126   -2.367812
H      0.439273   -1.743778    2.941914
H      1.699245   -2.973276    3.118568
H     -3.940535    6.619006   -1.124237
H     -1.347803    2.438973   -1.647488
H      0.026350   -4.433176    0.118789
H     -1.371687   -3.639412   -0.630738
H      0.092915   -2.053198   -2.031878
H      1.005734   -3.503784   -1.576552
H      1.955621   -0.690912   -2.094594
H      2.798394   -2.243436   -2.128429
H      1.597496    0.264160    2.368170
H      2.055561    0.801852    0.749007
H     -2.229335   -1.797426   -0.687299
H     -5.551513   -0.137800   -1.475452
H     -4.073579   -0.907071   -2.091387
H      6.488920   -0.388737   -2.784026
H      6.885534   -1.069261   -1.174939
H      1.938944   -3.387256    0.817881
H      3.040570   -1.409987    1.774810
H     -3.689497    4.855035    1.841903
H     -5.090889    5.288881    0.829924
H     -3.193601    2.715045    1.470254
