76

C     -4.316952   -2.397004   -1.840018
C     -6.350819    2.779292    1.249430
C     -5.013832    3.495991    1.281848
C      8.214966    2.292604    0.540341
C      8.220762    1.365236   -0.484800
C      7.106691    3.093259    0.688104
C     -0.275420   -3.231736    2.194780
C     -0.765711   -4.040890    1.045113
C     -6.191720    1.571039    0.352795
C     -4.494881    3.581177   -0.111628
C      7.133000    1.249856   -1.339659
C      6.016486    2.965865   -0.181848
C      1.148482   -2.807326    2.089709
C     -0.026044   -3.845847   -0.232603
C      1.163190   -2.160386   -1.650548
C     -5.001610    0.766160    0.813976
C     -3.544171    2.507951   -0.502280
C      2.514952   -1.541577   -1.548895
C      0.866077    0.113966    1.067384
C     -1.464085    0.618106    0.578937
C     -1.814138   -1.760378   -0.721794
C      4.875590    1.930462   -2.102474
C      6.021577    2.048963   -1.195691
C     -0.404035   -0.282909    0.467333
C      1.528025   -2.280460    0.750345
C     -0.584980   -1.455174   -0.176218
C      1.993384   -0.841594    0.786877
C     -2.703102    0.344494    0.046233
C     -2.864355   -0.855077   -0.604962
C      3.444647    0.552849   -0.673194
C      0.497636   -2.427969   -0.316392
N     -3.809360    1.227138    0.135068
N      2.652296   -0.601695   -0.470267
O      3.601045    1.414844    0.239284
O     -4.096171   -1.175638   -1.158979
O      4.090499    0.806482   -1.871339
H     -4.100383   -3.282874   -1.212488
H     -3.745217   -2.451906   -2.788620
H     -5.390616   -2.440461   -2.105916
H     -6.645434    2.417856    2.261205
H     -7.153775    3.406548    0.853348
H     -5.249058    4.542576    1.635962
H     -4.326850    3.077262    2.016304
H      9.083690    2.369798    1.206520
H      9.071655    0.718045   -0.634076
H      7.102626    3.812295    1.483203
H     -0.915982   -2.348238    2.432491
H     -0.352536   -3.873621    3.121853
H     -1.837940   -3.762199    0.879542
H     -0.798982   -5.128280    1.308101
H     -7.102454    0.944639    0.517037
H     -6.158478    1.808994   -0.709750
H     -3.944641    4.562868   -0.203672
H     -5.367581    3.689589   -0.799291
H      7.138323    0.523356   -2.142682
H      5.183351    3.625043   -0.013052
H      1.804450   -3.653169    2.431641
H      1.325663   -1.996823    2.840782
H     -0.592022   -4.159343   -1.111133
H      0.878549   -4.517906   -0.190418
H      0.516861   -1.547767   -2.316006
H      1.271150   -3.146278   -2.157280
H     -4.889357    0.925326    1.922906
H     -5.225367   -0.290337    0.680368
H     -2.471467    2.820633   -0.338515
H     -3.626541    2.341451   -1.608533
H      3.338660   -2.291955   -1.511277
H      2.689755   -0.991992   -2.517063
H      1.211300    1.135359    0.767686
H      0.716596    0.175993    2.173267
H     -1.324564    1.554411    1.091223
H     -2.003235   -2.704929   -1.257481
H      5.204786    1.930926   -3.175978
H      4.191400    2.825324   -2.038062
H      2.428778   -2.872750    0.411008
H      2.696971   -0.767539    1.652878
