76

C     -4.286710   -2.225054    1.806092
C     -6.504982    2.478293   -0.939013
C     -5.687820    3.523788   -0.222532
C      6.071409    4.815872    0.844585
C      6.369401    3.801835    1.718411
C      5.748087    4.485794   -0.469964
C      1.122609   -4.539230   -1.879737
C      0.712310   -4.951299   -0.494397
C     -6.103649    1.117595   -0.396140
C     -4.268358    3.496795   -0.733557
C      6.347324    2.494290    1.299467
C      5.729962    3.176445   -0.874135
C      1.177965   -3.041189   -2.060238
C     -0.083692   -3.900832    0.228313
C      1.209632   -2.232551    1.587485
C     -4.840183    0.617631   -1.089163
C     -3.413188    2.479493    0.004964
C      1.685834   -0.778823    1.512417
C      1.014445   -0.114907   -1.400489
C     -1.325096    0.465082   -0.910707
C     -1.710387   -1.780660    0.603581
C      5.989132    0.776046   -0.491704
C      6.028408    2.170048    0.003580
C     -0.276765   -0.416429   -0.749531
C      1.683785   -2.448490   -0.788360
C     -0.474112   -1.531720    0.004680
C      2.124920   -1.013035   -0.916593
C     -2.569597    0.245865   -0.327014
C     -2.749933   -0.885732    0.431023
C      3.861669    0.008835    0.508493
C      0.587408   -2.554331    0.247773
N     -3.658058    1.141134   -0.481887
N      2.575882   -0.582301    0.390059
O      4.230234    0.374287    1.653516
O     -3.983042   -1.106574    1.011567
O      4.719034    0.205347   -0.533020
H     -5.391565   -2.349318    1.856705
H     -3.894188   -3.152871    1.341870
H     -3.880193   -2.143311    2.841714
H     -7.571557    2.690897   -0.768388
H     -6.253544    2.460060   -2.024013
H     -6.089345    4.545324   -0.369102
H     -5.706187    3.283856    0.856638
H      6.093864    5.839475    1.192071
H      6.627418    4.004080    2.751971
H      5.517228    5.308667   -1.137482
H      0.488878   -4.959388   -2.675823
H      2.155433   -4.921146   -2.048642
H      1.573820   -5.279648    0.134794
H      0.058824   -5.845402   -0.595229
H     -5.967714    1.192252    0.691514
H     -6.904010    0.385606   -0.620583
H     -3.816297    4.482750   -0.594598
H     -4.256462    3.210165   -1.815640
H      6.593266    1.706435    2.024899
H      5.477242    2.948040   -1.894054
H      0.145345   -2.698298   -2.307743
H      1.896360   -2.830289   -2.873402
H     -1.103276   -3.876547   -0.212641
H     -0.198775   -4.235513    1.279998
H      2.094127   -2.847288    1.802339
H      0.430741   -2.278668    2.354722
H     -4.868208   -0.482148   -1.059308
H     -4.942965    0.947454   -2.155841
H     -2.359187    2.781052   -0.126459
H     -3.728998    2.548373    1.081560
H      0.780426   -0.145352    1.460745
H      2.211799   -0.517133    2.463408
H      0.942793   -0.165356   -2.513289
H      1.287969    0.935288   -1.114264
H     -1.228395    1.370056   -1.499814
H     -1.905663   -2.648186    1.205287
H      6.456980    0.782054   -1.497355
H      6.698766    0.197745    0.156030
H      2.551765   -3.035074   -0.436515
H      2.929608   -0.980012   -1.668961
