55

C      7.088098    1.225526   -0.377925
C      7.320362   -0.089518   -0.024494
C      5.786080    1.602885   -0.643718
C     -2.879458    1.806765   -2.099757
C     -3.767473    2.032053   -0.904431
C      6.241049   -0.971787    0.048347
C      4.727382    0.714888   -0.566789
C     -2.024685    0.578990   -1.866210
C     -3.049651    2.001622    0.396353
C     -1.292250    1.012655    1.793906
C      0.181228    1.252255    1.547922
C     -2.583215   -2.851941    0.276534
C     -0.576719   -1.524950   -0.123104
C     -4.070176   -0.633055    0.925613
C      3.893859   -1.616616   -0.109745
C      4.952923   -0.601383   -0.213820
C     -2.000902   -1.584413    0.257849
C     -1.179871    0.859153   -0.647428
C     -2.755262   -0.468595    0.586053
C     -3.913746   -2.984519    0.623858
C     -0.084611   -0.158951   -0.465510
C     -4.671583   -1.871871    0.952657
C      2.067544   -0.180777    0.740096
C     -2.101470    0.844767    0.553032
I     -4.844093   -4.865243    0.669623
N      0.743319    0.308156    0.625332
O     -6.010494   -1.936413    1.309766
O      2.842915    0.193753    1.678784
O      2.584101   -1.088183   -0.160323
H      7.905567    1.917517   -0.438878
H      8.319194   -0.447529    0.196153
H      5.577942    2.618897   -0.920615
H     -2.205818    2.658170   -2.305737
H     -3.534991    1.636430   -2.974139
H     -4.212238    3.054575   -1.022537
H     -4.612654    1.326605   -0.979475
H      6.441955   -2.003890    0.328203
H      3.705033    1.021863   -0.780822
H     -2.671436   -0.312788   -1.743065
H     -1.324869    0.420562   -2.711067
H     -2.413816    2.929846    0.448989
H     -3.756454    2.071868    1.221656
H     -1.342884    0.104049    2.462879
H     -1.669223    1.848394    2.417135
H      0.674867    1.261382    2.538528
H      0.253500    2.308070    1.153598
H     -2.029029   -3.735581    0.028383
H     -0.390726   -2.206205   -0.990980
H      0.001425   -1.996233    0.724683
H     -4.645071    0.241180    1.178320
H      3.961190   -2.218716    0.819389
H      3.995401   -2.332787   -0.948484
H     -0.728132    1.847270   -0.735010
H      0.508688   -0.155469   -1.418651
H     -6.430620   -2.862733    1.321945
