57

C      6.599551   -1.448009    0.638635
C      6.431276   -0.098866    0.463209
C      5.953258   -2.301801   -0.208604
C     -3.003791    3.091809    0.698750
C     -3.969104    2.037824    0.201042
C      5.615030    0.374538   -0.562217
C      5.146603   -1.832427   -1.221839
C     -1.768273    2.320587    1.161530
C     -1.138230   -1.587224    2.469042
C     -2.223731   -2.426309    2.544634
C     -3.362970    1.169527   -0.860542
C     -1.524630   -0.122825   -1.742769
C     -0.072089   -0.343351   -1.771960
C      0.123997    0.259646    1.467882
C      4.087882    0.041929   -2.509731
C     -5.317717   -2.143356    0.662067
C      4.957289   -0.476276   -1.423731
C     -1.072040   -0.595215    1.466226
C     -1.154852    1.702516   -0.070275
C      0.179946    1.140607    0.279018
C     -3.249896   -2.293625    1.633704
C     -2.067959   -0.446490    0.560642
C     -3.161023   -1.316576    0.663533
C      2.102003    0.568495   -1.138718
C     -2.049275    0.542142   -0.488377
N      0.712084    0.457312   -0.866934
O      2.823424    1.255502   -0.377240
O      2.710654   -0.047948   -2.211664
O     -4.466871   -2.986139    1.455379
O     -4.328738   -1.446614   -0.075391
H      7.223045   -1.844018    1.420930
H      6.931679    0.590560    1.120009
H      6.098087   -3.372384   -0.055097
H     -2.679052    3.787524   -0.073114
H     -3.496881    3.598268    1.554623
H     -4.349680    1.499868    1.066888
H     -4.814684    2.582834   -0.266898
H      5.537094    1.450135   -0.635390
H      4.664827   -2.556877   -1.855944
H     -2.157990    1.542433    1.842653
H     -1.074884    3.008808    1.680783
H     -0.320883   -1.672178    3.172574
H     -2.310817   -3.201705    3.301976
H     -3.106011    1.883719   -1.704573
H     -4.108967    0.508216   -1.284555
H     -2.046075   -1.114874   -1.804020
H     -1.859601    0.446809   -2.634694
H      0.329075   -0.131952   -2.807230
H      0.188209   -1.406439   -1.580418
H      1.003393   -0.425124    1.454366
H      0.175224    0.865079    2.405774
H      4.329895   -0.497692   -3.448643
H      4.372077    1.113541   -2.723534
H     -5.993373   -2.728173    0.030976
H     -5.812295   -1.428633    1.331709
H     -1.065670    2.435393   -0.900834
H      0.832450    2.017481    0.556380
