57

C      7.122715    0.537419    0.987944
C      7.494643   -0.138229   -0.167068
C      5.824596    0.981967    1.103622
C     -3.313877   -2.155962    0.759897
C     -3.882503   -1.893184   -0.589806
C      6.561681   -0.353259   -1.177542
C      4.894677    0.761959    0.084687
C     -1.826395   -2.228573    0.834030
C     -1.795614    1.617690    2.480582
C     -3.021878    2.251545    2.508019
C     -3.117857   -0.931031   -1.431259
C     -1.206108    0.518957   -1.722014
C      0.215148    0.803836   -1.395575
C     -0.097310    0.162666    1.511858
C      4.321758   -0.156162   -2.154182
C     -5.799405    1.767305    0.190183
C      5.264295    0.092191   -1.059434
C     -1.436716    0.779570    1.425216
C     -1.097986   -1.398270   -0.165316
C      0.157195   -0.857989    0.442601
C     -3.933770    2.073154    1.485616
C     -2.342641    0.596562    0.400451
C     -3.574683    1.246590    0.449021
C      2.237797   -0.496470   -0.869236
C     -1.964421   -0.280732   -0.703555
N      0.884523   -0.183793   -0.614132
O      2.840038   -1.377245   -0.174687
O      2.982526    0.116548   -1.865068
O     -5.221030    2.552245    1.215263
O     -4.624532    1.225971   -0.431806
H      7.870243    0.688696    1.754586
H      8.502323   -0.489516   -0.269732
H      5.551632    1.504712    2.006387
H     -3.710587   -1.442138    1.517461
H     -3.702312   -3.159587    1.105743
H     -4.916954   -1.503317   -0.455268
H     -4.031558   -2.888491   -1.102961
H      6.858456   -0.874079   -2.061766
H      3.894001    1.118874    0.197128
H     -1.525170   -1.997469    1.896009
H     -1.489204   -3.296951    0.691900
H     -1.118680    1.796100    3.313197
H     -3.310035    2.912121    3.335679
H     -3.729389   -0.213121   -2.011975
H     -2.618787   -1.553802   -2.238214
H     -1.711137    1.504165   -1.912769
H     -1.278983   -0.017688   -2.710425
H      0.761974    0.878173   -2.382015
H      0.373188    1.800299   -0.925452
H      0.666818    0.967556    1.468633
H     -0.033292   -0.293826    2.541673
H      4.372669   -1.201184   -2.534873
H      4.625833    0.484207   -3.016485
H     -6.379947    2.378680   -0.527076
H     -6.399989    0.976412    0.679903
H     -0.809071   -2.020376   -1.037494
H      0.743092   -1.693725    0.872479
