80

C      4.229907   -2.582508   -3.826750
C     -7.268588    2.492353   -2.447153
C      4.905412   -3.381158   -2.933959
C      3.892388   -1.304211   -3.459738
C     -5.966417    2.494958   -1.971027
C     -8.162661    1.511444   -2.048367
C      0.065103   -3.355180    2.764282
C      1.326498   -3.282545    1.892540
C      5.219656   -2.865365   -1.697788
C      4.196863   -0.767620   -2.228023
C     -5.580877    1.490465   -1.084829
C     -7.793544    0.516710   -1.175528
C     -0.634713   -2.022296    2.580125
C      1.800894    5.227079    2.980085
C      3.122992    6.252880    1.313430
C      2.180365    3.972049    2.548483
C      3.489883    5.000013    0.896280
C      0.852691   -3.280401    0.466441
C     -0.330999   -2.015389   -1.225665
C     -1.494276   -1.136677   -1.576089
C      1.237859    1.527915    0.934601
C     -1.007446    0.579228    0.894229
C      2.352867   -0.864192    0.269229
C      5.225393   -1.035035   -0.016438
C     -6.088667   -0.527391    0.219486
C      4.879640   -1.582874   -1.332853
C     -6.481661    0.528615   -0.702760
C      0.438211    0.405519    0.732441
C      2.255511    6.377642    2.382917
C      3.032886    3.815995    1.496420
C     -1.064682   -1.925883    1.151422
C      0.970611   -0.801838    0.399165
C      2.602415    1.461514    0.806320
C     -1.815048   -0.663496    0.829742
C      3.157250    0.218323    0.461850
C     -3.803690   -0.830449   -0.675711
C      0.103912   -1.969951    0.192610
F      1.843510    7.569846    2.856882
N      3.445667    2.582239    0.966737
N     -2.392482   -0.881379   -0.505126
O     -4.267641   -1.020862   -1.829268
O      4.517040    0.114699    0.324747
O     -4.684622   -0.585792    0.347215
H      3.948814   -2.915952   -4.813734
H     -7.579669    3.259550   -3.129968
H      5.153904   -4.374712   -3.252830
H      3.355625   -0.666713   -4.166204
H     -5.232162    3.238722   -2.252453
H     -9.161580    1.570729   -2.459200
H     -0.593536   -4.115340    2.276875
H      0.297775   -3.580192    3.807597
H      2.018109   -4.093962    2.107690
H      1.805467   -2.306303    2.187940
H      5.758324   -3.524987   -1.007184
H      3.913718    0.242761   -1.978916
H     -4.565228    1.487628   -0.706006
H     -8.494590   -0.255142   -0.860222
H     -1.568503   -2.062674    3.198658
H     -0.007704   -1.174947    2.909926
H      1.112672    5.305661    3.828961
H      3.466848    7.157589    0.861572
H      1.819441    3.082327    3.066643
H      4.172688    4.923778    0.053431
H      0.066005   -4.074281    0.392800
H      1.611092   -3.500779   -0.281700
H     -0.525855   -3.084932   -1.517699
H      0.529588   -1.693944   -1.861036
H     -1.142014   -0.159130   -2.003824
H     -2.050048   -1.630378   -2.399791
H      0.760153    2.473054    1.174963
H     -1.269871    1.136878    1.823232
H     -1.349270    1.248543    0.056912
H      2.751215   -1.840058    0.007611
H      6.321116   -0.883969    0.008998
H      5.022195   -1.790882    0.797109
H     -6.544942   -0.450057    1.225499
H     -6.391019   -1.515951   -0.235771
H     -1.714531   -2.785549    0.928090
H     -2.650286   -0.598588    1.568566
H      4.448651    2.495211    0.672857
