54

C     -4.462248   -1.942977    1.047088
C     -3.232675    3.316382   -0.232323
C      1.171461    5.472307   -0.107647
C      5.548032   -3.008385    0.551675
C      4.740424   -1.894782    0.586282
C     -0.892154   -1.674714    0.688963
C     -2.164107   -1.934936    1.605029
C      3.825666   -4.138904   -0.622538
C      3.470967    0.566949    0.045996
C     -0.490595    3.089649   -0.128302
C     -3.592670   -0.644690   -1.386862
C      5.076100   -4.137951   -0.061062
C      3.465297   -1.839574    0.034228
C     -1.440243   -0.513544   -0.132629
C      3.022527   -2.995649   -0.578682
C     -2.878188   -0.579416   -0.026076
C      2.855535    1.783523    0.020567
C      2.706982   -0.578031    0.027992
C     -1.228324    1.931294   -0.133456
C      0.873123    3.070595   -0.070364
C     -0.659849    0.685213   -0.085897
C      1.470676    1.802165   -0.021921
C      0.725946    0.647865   -0.036141
Br     6.085856   -5.753606   -0.177264
Cl     1.477935   -3.012899   -1.408099
N     -3.121027   -1.931913    0.530544
O     -3.010028   -1.680835   -2.124945
O      3.535901    2.862629    0.036812
O     -2.588886    2.041277   -0.188315
O      1.687253    4.182188   -0.055802
O      1.421167   -0.499216   -0.009399
H     -4.545368   -2.652844    1.921889
H     -4.845486   -0.966677    1.374027
H     -5.193010   -2.347586    0.294759
H     -2.803228    3.883310    0.620432
H     -2.894105    3.812574   -1.169158
H     -4.316531    3.212233   -0.193975
H      0.911511    5.779609   -1.161540
H      0.260524    5.536680    0.501266
H      1.956986    6.183785    0.216974
H      6.535410   -2.999211    0.991476
H      5.120019   -1.003673    1.086976
H     -0.807226   -2.619645    0.161473
H     -0.059708   -1.448262    1.332711
H     -2.054769   -2.856618    2.149428
H     -2.249534   -1.017060    2.191014
H      3.428291   -5.040774   -1.115965
H      4.545969    0.570318    0.072195
H     -0.950971    4.072125   -0.173333
H     -4.649355   -0.905492   -1.208467
H     -3.544180    0.284906   -1.942340
H     -1.223631   -0.916265   -1.223236
H     -3.418820    0.071521    0.655928
H     -2.602644   -1.322965   -2.969988
