58

C      5.181159   -0.400983    0.124935
C     -3.057483   -2.945117   -1.536077
C     -3.967899    3.017947    1.869612
C      0.063045    5.824486    0.986416
C      2.574228   -3.542842   -1.217032
C      2.045791   -2.322472   -0.926872
C     -1.102176   -1.695100    1.245387
C     -1.685960   -2.809997    0.428934
C      4.743573   -2.694288   -0.693521
C      2.806436    1.218796   -0.242769
C     -1.288265    3.195778    1.112510
C      4.450544   -5.003255   -1.409979
C     -3.372501    0.000416   -1.134750
C      4.215810   -1.414175   -0.380819
C      3.936167   -3.710294   -1.094336
C      2.874447   -1.254721   -0.507985
C     -1.870327   -0.490533    0.874522
C     -2.326276   -0.850592   -0.538897
C      2.041438    2.329660    0.083804
C      2.188857   -0.001634   -0.176894
C     -1.858390    1.922904    1.160432
C      0.030784    3.349111    0.753794
C     -1.151763    0.795806    0.860513
C      0.743252    2.197332    0.448272
C      0.182283    0.915977    0.490630
N      4.884093   -6.081266   -1.653157
N     -2.776566   -2.216984   -0.322386
O     -4.535791    0.095799   -0.429387
O      2.554321    3.492274    0.044472
O     -3.192328    1.908020    1.540722
O      0.651348    4.590513    0.695427
O      0.919404   -0.075136    0.185174
H      6.037437   -1.005598    0.614622
H      5.692700    0.159309   -0.652601
H      4.799605    0.165333    0.990983
H     -2.617891   -2.451177   -2.400635
H     -4.166942   -2.947496   -1.651988
H     -2.769780   -4.032102   -1.427555
H     -4.269434    3.551595    0.955368
H     -3.423202    3.707830    2.575676
H     -4.920310    2.637921    2.350060
H      0.301179    6.573447    0.175640
H     -1.018362    5.844903    1.092253
H      0.504943    6.280759    1.923741
H      1.919585   -4.374451   -1.532300
H      0.984335   -2.146088   -1.018841
H     -1.263899   -1.939773    2.364071
H     -0.025931   -1.721393    1.045248
H     -0.963626   -3.282867   -0.278154
H     -2.060978   -3.591776    1.132023
H      5.825293   -2.806276   -0.591358
H      3.810860    1.412847   -0.570814
H     -1.881204    4.091708    1.351739
H     -2.939751    0.979453   -1.430419
H     -3.649470   -0.478872   -2.124442
H     -2.789555   -0.431139    1.491338
H     -1.436276   -0.937180   -1.219295
H     -4.580583   -0.604346    0.271271
