48

C     -4.811340    1.145010   -0.065021
C      5.084644    2.784534    0.295687
C      5.589231    1.579629    0.667694
C      3.736070    2.877704   -0.015804
C     -1.621074    0.902177    1.454733
C     -2.851473    1.769542    1.270487
C     -1.362683   -3.529279   -0.158713
C      3.075047   -1.916886    0.234559
C     -1.946610    1.661571   -1.783410
C     -1.483250    0.184673    0.145275
C      4.758007    0.446397    0.732140
C      2.937075    1.751256    0.054542
C     -2.547003    0.636603   -0.757277
C     -1.830404   -2.252059   -0.052753
C     -0.006845   -3.822951   -0.095133
C      2.206344   -3.013193    0.105305
C      2.546656   -0.665450    0.324341
C     -0.968857   -1.157923    0.124828
C      3.443412    0.503657    0.431499
C      0.851769   -2.764908    0.073877
C      0.360022   -1.485897    0.173653
F      5.363453   -0.686468    1.146593
F      1.653391    1.867721   -0.261394
N     -3.440315    1.472463    0.027010
O     -1.292111    2.566802   -0.900711
O     -3.191697   -1.997002   -0.110849
O      0.367904   -5.146350   -0.208355
O      2.708974   -4.156359    0.022798
O      1.239972   -0.490277    0.298095
H     -5.449807    2.073371   -0.123063
H     -5.199184    0.411957    0.646243
H     -4.967936    0.686423   -1.104056
H      5.739989    3.657936    0.239768
H      6.622561    1.466515    0.916116
H      3.378711    3.869334   -0.312444
H     -1.920923    0.180829    2.294879
H     -0.753950    1.465199    1.809525
H     -3.553892    1.601967    2.133486
H     -2.517002    2.852167    1.286894
H     -2.028094   -4.394261   -0.282861
H      4.117769   -2.127106    0.245334
H     -1.241556    1.175504   -2.449917
H     -2.786309    2.169855   -2.243806
H     -0.529521    0.798747   -0.282786
H     -3.078997   -0.098024   -1.365369
H     -1.731044    3.431958   -0.941165
H     -3.861799   -2.719002   -0.243682
H      1.192675   -5.568106   -0.205981
