58

C     -2.304004   -3.872587    0.582910
C      5.154362   -4.227406    0.328911
C     -4.770270    1.985571   -0.337407
C     -2.106859    5.681863    0.348998
C      5.621775   -1.519694   -0.389374
C      5.792198   -0.208837   -0.722849
C     -0.358941   -1.448653   -1.101279
C     -1.138960   -2.795017   -1.135047
C      3.336065   -1.021577    0.142981
C      2.428834    2.542665    0.082265
C     -2.265850    2.968597   -0.070407
C     -3.259900   -1.434845    1.082694
C      4.385447   -1.912093    0.042071
C     -1.517732   -0.618152   -0.577303
C      3.483323    0.327893   -0.192398
C      4.726510    0.700251   -0.623195
C     -1.840738   -1.473979    0.640211
C      1.293220    3.333368    0.147804
C      2.298874    1.188134   -0.127532
C     -2.384738    1.620343   -0.280454
C     -1.052893    3.541257    0.071599
C     -1.269453    0.775912   -0.356455
C      0.068623    2.727010   -0.000064
C     -0.037602    1.365650   -0.209460
Cl     5.028350    2.337437   -1.139136
N     -1.442928   -2.803902    0.289069
O     -4.183762   -1.842491    0.122108
O      1.359956    4.575956    0.337230
O      4.168037   -3.240869    0.390928
O     -3.667213    1.123448   -0.419929
O     -0.925102    4.919853    0.286256
O      1.088210    0.685737   -0.258634
H     -3.243307   -3.952219    0.013061
H     -2.463073   -4.047981    1.683442
H     -1.744231   -4.814165    0.281107
H      4.799218   -5.083602    0.951412
H      6.132881   -3.933914    0.708554
H      5.261675   -4.629990   -0.716976
H     -4.758884    2.776488   -1.114315
H     -5.700627    1.363707   -0.391332
H     -4.821593    2.497219    0.661532
H     -2.683414    5.580793   -0.578958
H     -1.824762    6.721943    0.600290
H     -2.778867    5.303731    1.173341
H      6.402812   -2.263651   -0.443764
H      6.741467    0.151166   -1.065983
H      0.010124   -1.167142   -2.070604
H      0.373471   -1.677658   -0.313268
H     -0.483762   -3.602893   -1.442090
H     -2.028738   -2.616857   -1.734070
H      2.377477   -1.324996    0.504314
H      3.374434    3.052067    0.236393
H     -3.146827    3.617274   -0.010916
H     -3.560769   -0.539118    1.658095
H     -3.367117   -2.246749    1.889113
H     -2.363376   -0.810012   -1.295714
H     -1.225620   -1.074083    1.488284
H     -4.985436   -1.260199    0.082323
