39

C     -2.251553   -1.433921    1.046195
C     -1.367910   -2.217077    0.106764
C     -1.772835   -0.047253    1.309572
C     -1.025106   -1.438132   -1.138172
C     -0.089465    0.660609   -2.038823
C     -0.860906    1.942750   -2.126311
C      2.409813    0.607601    1.507229
C      0.455398    1.995844    1.038373
C      1.644243   -1.364851   -0.172196
C      1.226472    0.768078    0.819327
C     -1.402783    0.651515    0.022106
C      0.863248   -0.246030   -0.023991
C      3.208172   -0.504301    1.374653
C     -0.844583    2.016993    0.273911
C      2.837303   -1.512402    0.529818
C     -0.392684   -0.133301   -0.788439
I      4.995876   -0.685308    2.450458
N     -0.727416    2.759790   -0.939753
O      3.615462   -2.668099    0.357833
H     -3.314811   -1.455120    0.731269
H     -2.222626   -1.987265    2.029923
H     -0.472095   -2.548572    0.630311
H     -1.922475   -3.125003   -0.210915
H     -0.959530   -0.001406    2.068318
H     -2.619888    0.527531    1.747274
H     -0.388132   -2.062732   -1.775425
H     -1.939779   -1.219763   -1.725215
H     -0.360373    0.050817   -2.930358
H      0.990102    0.889522   -2.147297
H     -0.427746    2.530576   -2.964997
H     -1.898756    1.721566   -2.390048
H      2.759414    1.386962    2.201987
H      0.285896    2.141108    2.137773
H      1.070820    2.866946    0.713923
H      1.399575   -2.196045   -0.828730
H     -2.317370    0.756439   -0.580480
H     -1.583456    2.552672    0.931385
H      0.092045    3.404864   -0.975289
H      3.308438   -3.385602   -0.271967
