53

C     -3.423240    2.688342   -0.653082
C     -0.995122    0.359550   -1.870970
C     -1.653922    1.737140   -1.945685
C      4.599398    0.290382   -0.357530
C      3.845057    2.862386   -0.699394
C     -1.462517   -3.537731    1.022455
C      2.837703   -1.560759    0.854747
C     -3.387332    0.519896    0.902657
C     -1.773568   -0.372909   -0.833661
C      3.231643    0.563387   -0.234692
C      2.883128    1.883399   -0.413560
C      5.170389    2.560427   -0.812792
C      5.543495    1.251005   -0.636756
C     -2.152070    0.776545    0.128114
C     -1.985047   -2.490639    0.307922
C     -0.105705   -3.625629    1.370008
C      2.042859   -2.620293    1.274231
C      2.294938   -0.493948    0.133198
C     -1.121962   -1.449568   -0.098074
C      0.706216   -2.591467    0.959122
C      0.214926   -1.491195    0.224662
Cl     1.227373    2.405889   -0.204256
Cl     6.336367    3.819401   -1.172888
F      6.848805    0.931564   -0.742803
N     -2.192783    1.974781   -0.640534
O     -3.561164    1.626158    1.764249
O     -3.317468   -2.494289    0.012191
O      0.334309   -4.700392    2.078805
O      2.530891   -3.571002    1.919473
O      1.022852   -0.507597   -0.146177
N     -0.418184    0.042176    0.214891
O      0.870369   -0.112043    0.667131
O     -1.248448   -1.023177   -0.042779
O     -0.893319    1.180949    0.016803
H     -3.486814    3.420994    0.199222
H     -3.430701    3.347351   -1.568841
H     -4.338576    2.070149   -0.743348
H      0.070418    0.351987   -1.858067
H     -1.246702   -0.075552   -2.914500
H     -2.515512    1.750818   -2.654375
H     -0.938761    2.492394   -2.279384
H      4.884245   -0.759224   -0.230618
H      3.533167    3.895574   -0.835606
H     -2.076374   -4.372662    1.364057
H      3.873591   -1.632069    1.141689
H     -4.288765    0.297377    0.326257
H     -3.208183   -0.334682    1.594442
H     -2.718747   -0.685153   -1.303550
H     -1.296270    0.849949    0.831446
H     -4.537940    1.634271    1.948734
H     -3.932150   -1.931408   -0.457621
H      1.115627   -5.062947    2.463320
H      1.689581   -0.087905    0.102548
