48

C     -3.563106    1.891026    1.954746
C      5.075365   -0.058675    2.977648
C      3.816239    0.446030    3.039624
C      5.490868   -0.577203    1.778778
C     -1.058886   -0.306470    1.327551
C     -1.282725    1.157914    1.620028
C     -1.207851   -0.555600   -3.609672
C      3.078281   -0.165230   -1.683867
C     -4.139068   -0.329186    0.636568
C     -1.691147   -0.508494    0.034316
C      2.975777    0.437068    1.920421
C      4.652431   -0.588446    0.660243
C     -2.913189    0.403833    0.145201
C     -1.755784   -0.562082   -2.362471
C      0.163491   -0.449678   -3.813982
C      2.306513   -0.254130   -2.820338
C      2.452973   -0.177617   -0.455407
C     -0.973394   -0.461339   -1.202779
C      3.361884   -0.074196    0.710748
C      0.955120   -0.350684   -2.693068
C      0.381212   -0.358050   -1.425888
F      1.766339    0.993648    2.057751
F      5.140441   -1.156242   -0.446270
N     -2.549473    1.473149    1.055637
O     -3.977252   -0.904548    1.894585
O     -3.141961   -0.678670   -2.330865
O      0.639724   -0.449584   -5.088148
O      2.882829   -0.242790   -3.942604
O      1.156813   -0.270060   -0.394820
H     -3.791483    1.223329    2.793037
H     -4.447801    2.212155    1.365355
H     -3.186265    2.835553    2.441837
H      5.692830   -0.033490    3.860633
H      3.468559    0.861704    3.983431
H      6.498958   -0.980807    1.728003
H     -1.696928   -0.815059    2.124850
H     -0.081188   -0.707312    1.510150
H     -1.255849    1.354052    2.711081
H     -0.533824    1.835054    1.159037
H     -1.831647   -0.634543   -4.516099
H      4.155383   -0.057626   -1.830615
H     -4.970323    0.404189    0.617480
H     -4.387265   -1.160459   -0.034509
H     -2.166927   -1.554138    0.067042
H     -3.171266    0.908101   -0.797671
H     -4.084227   -1.868368    1.915790
H     -3.734663   -0.752361   -3.118589
H      1.481463   -0.393670   -5.523906
