48

C     -4.508969    0.873162   -0.297813
C      3.348535    2.403848   -1.813730
C      2.690568    1.341785   -1.275129
C     -0.919934    0.567373   -0.865107
C     -2.381982    0.314612   -1.313428
C      5.401676    1.195484   -1.579102
C     -1.274689   -3.029456    2.061090
C      2.903711   -2.118644    0.086713
C     -2.067366    2.728893    0.453132
C      4.715231    2.348656   -1.975695
C      3.318642    0.144940   -0.851324
C     -1.128242    0.497611    0.715206
C      4.671329    0.141471   -1.034451
C     -2.350103    1.229734    0.830313
C     -1.700568   -1.705394    1.733664
C     -0.040904   -3.474391    1.716433
C      2.075471   -3.059778    0.731836
C      2.481387   -0.853931   -0.206425
C     -0.872490   -0.868510    1.070698
C      0.809163   -2.631192    1.052384
C      0.430564   -1.352117    0.728577
Br     5.722738    3.787951   -2.685372
Cl     5.625032   -1.229967   -0.517270
N     -3.160184    0.770454   -0.235947
O     -3.287350    3.417799    0.480532
O     -2.953219   -1.381902    2.129859
O      0.398524   -4.750797    2.002741
O      2.457263   -4.212904    0.997367
O      1.224221   -0.510004    0.129653
H     -5.019501   -0.073779    0.057823
H     -4.999861    1.698025    0.262526
H     -4.857789    0.993978   -1.366030
H      2.855420    3.314038   -2.139827
H      1.630453    1.443019   -1.169473
H     -0.381121   -0.308890   -1.216305
H     -0.626732    1.536949   -1.175863
H     -2.544684    0.740018   -2.293246
H     -2.543246   -0.806257   -1.385714
H      6.460714    1.122450   -1.691924
H     -1.969140   -3.695338    2.593201
H      3.861367   -2.470709   -0.180377
H     -1.779668    2.786870   -0.637196
H     -1.290354    3.174049    1.052521
H     -0.217621    1.125655    1.057452
H     -2.814447    1.331682    1.814966
H     -3.665731    3.547063   -0.406209
H     -3.513036   -0.637381    2.066724
H     -0.213079   -5.406230    2.487547
