54

C     -1.891515   -3.317284   -0.344762
C     -3.840957    2.780357    0.091319
C      0.032956    5.461676    1.182157
C      5.039418   -3.534952   -1.065251
C      5.527524   -2.502820   -0.333341
C      3.724070   -3.370459   -1.510977
C     -1.369967   -1.133836   -1.912932
C     -2.719012   -1.885568   -1.958357
C      3.278532    1.165609    0.182960
C     -1.069634    3.030447    0.388071
C     -2.355616   -1.300934    1.619913
C     -1.377013   -0.582918   -0.547091
C      4.783968   -1.347023   -0.037917
C      2.980692   -2.266350   -1.237987
C     -2.591953   -1.034337    0.135091
C      2.478248    2.273183    0.434625
C     -1.586021    1.828476   -0.013134
C      0.288264    3.185050    0.532499
C      2.731063   -0.021802   -0.210032
C     -0.797345    0.722834   -0.287545
C      3.508070   -1.232617   -0.491558
C      1.121689    2.121822    0.274965
C      0.582741    0.892465   -0.132776
F      5.433066   -0.417875    0.743061
F      1.707322   -2.118227   -1.695475
N     -2.888204   -2.305340   -0.561100
O     -3.440426   -1.873826    2.261764
O      2.958896    3.365630    0.789800
O     -2.943463    1.729613   -0.148446
O      0.870515    4.368984    0.921377
O      1.412223   -0.099014   -0.352548
H     -0.989637   -3.210254   -0.957603
H     -2.355542   -4.281007   -0.661005
H     -1.557867   -3.441972    0.714897
H     -4.896358    2.407865   -0.002106
H     -3.774650    3.550323   -0.740716
H     -3.700599    3.294285    1.051319
H     -0.624575    5.291713    2.029574
H      0.685465    6.377746    1.299131
H     -0.572360    5.667687    0.249430
H      5.621755   -4.442294   -1.298086
H      6.567273   -2.580596    0.054763
H      3.254577   -4.160555   -2.096682
H     -1.553076   -0.290025   -2.663327
H     -0.579016   -1.769702   -2.251115
H     -2.606815   -2.710675   -2.664703
H     -3.528467   -1.211020   -2.270100
H      4.351539    1.267067    0.290039
H     -1.718497    3.887955    0.607551
H     -1.379325   -1.784976    1.818555
H     -2.239953   -0.267923    2.068539
H     -0.551033   -1.311705   -0.023207
H     -3.465241   -0.423468   -0.023865
H     -3.975728   -2.439432    1.700632
