65

C      8.194386   -2.009994    2.210591
C      0.360185    4.555977   -0.589687
C     -4.536542    4.929963    1.051957
C     -2.686039   -4.813323   -0.305180
C     -3.848227   -5.534862   -0.482573
C     -2.728009   -3.443241   -0.090653
C     -5.023237   -4.844584   -0.439570
C      4.128502   -1.541442    0.805350
C      4.680513    0.623839    0.119963
C      5.419748   -1.737895    1.276424
C      5.960370    0.450585    0.576005
C      0.004377   -0.884062   -0.512521
C      1.388010   -1.109380    0.020759
C     -4.913092   -0.540967    0.547061
C     -2.269942    3.413743    0.130097
C      2.188474    1.052754   -1.015249
C      3.707278   -0.377503    0.217873
C      6.341617   -0.740183    1.163154
C     -3.912404   -2.724956   -0.043482
C     -0.245185    0.485684   -1.066434
C     -5.051000   -3.451384   -0.222926
C     -4.808401    0.842851    0.677837
C      0.894116    1.105068   -1.743265
C     -3.849217   -1.269612    0.107546
C     -1.207238    2.658262   -0.306418
C     -3.458267    2.802078    0.455315
C     -1.310323    1.265479   -0.433805
C     -3.608108    1.425335    0.350142
C     -2.565410    0.672890   -0.083731
Cl    -6.622264   -2.717224   -0.243283
N      2.383827   -0.155228   -0.265363
O     -5.761552    1.552568    1.077213
O      1.180201    0.385547   -2.985187
O      7.618620   -0.879368    1.603196
O     -0.001456    3.216656   -0.631582
O     -4.574458    3.515025    0.906541
O     -2.709110   -0.625839   -0.191630
H      7.770309   -2.937093    1.715259
H      9.298390   -2.038986    2.009966
H      7.987126   -2.094937    3.305426
H      1.326827    4.691889    0.001037
H      0.479713    5.037627   -1.592754
H     -0.358005    5.178161   -0.022625
H     -3.806664    5.247118    1.796393
H     -5.584760    5.263329    1.275967
H     -4.296952    5.364324    0.044718
H     -1.740618   -5.318547   -0.338497
H     -3.820589   -6.610026   -0.650294
H     -1.833514   -2.887496    0.073351
H     -5.947279   -5.397431   -0.568137
H      3.451733   -2.351420    0.920830
H      4.400308    1.558992   -0.335282
H      5.682967   -2.684179    1.729872
H      6.715666    1.233667    0.492071
H     -0.268425   -1.715850   -1.174729
H     -0.643115   -0.948111    0.388190
H      1.367961   -1.289837    1.152409
H      1.741416   -2.103623   -0.366695
H     -5.857843   -0.951023    0.847942
H     -2.189051    4.504534    0.219258
H      3.040357    1.071262   -1.758760
H      2.367622    1.939287   -0.375753
H     -0.876569    0.148018   -2.050776
H      0.690936    2.089746   -2.120381
H      2.141309    0.447343   -3.169876
