53

C     -2.742283   -1.826244    2.049374
C     -0.763313   -1.154418   -0.273019
C     -1.682122   -2.337830   -0.056600
C      2.779988   -1.862028   -0.254142
C      5.244929   -1.723017   -1.395824
C     -1.415988    3.631291    0.222564
C      2.999739    1.790014   -0.128566
C     -4.070113   -0.620038   -0.955623
C     -1.710300    0.001632   -0.504757
C      3.268018   -0.593598   -0.575607
C      4.499703   -0.547377   -1.145939
C      4.759333   -2.955253   -1.077769
C      3.517590   -3.023725   -0.503572
C     -2.976596   -0.413894    0.102283
C     -1.899071    2.382747   -0.009898
C     -0.028814    3.827084    0.259819
C      2.161764    2.880201    0.079575
C      2.420464    0.568066   -0.358002
C     -1.114546    1.277877   -0.215087
C      0.805482    2.727344    0.055671
C      0.268196    1.451693   -0.182051
Cl     5.205208    0.969670   -1.687978
Cl     5.704398   -4.417762   -1.397671
F      3.026797   -4.243225   -0.184893
N     -2.786555   -1.786085    0.630030
O     -3.670785   -1.502196   -1.953906
O     -3.256787    2.225367   -0.038779
O      0.449221    5.061867    0.489998
O      2.676918    3.990337    0.286394
O      1.090385    0.468924   -0.369771
N     -0.404053    0.049166    0.115162
O      0.917058   -0.179315    0.342139
O     -1.244370   -1.001960   -0.064848
O     -0.808442    1.211020    0.078190
H     -3.530471   -2.542746    2.406751
H     -3.067697   -0.818005    2.431406
H     -1.797219   -2.165613    2.482402
H     -0.234610   -1.043591    0.707819
H     -0.126668   -1.368204   -1.127233
H     -1.976448   -2.739868   -1.034257
H     -1.174156   -3.132693    0.535918
H      1.820519   -1.990725    0.214707
H      6.221621   -1.658545   -1.847665
H     -2.023809    4.507887    0.384888
H      4.079135    1.953122   -0.057264
H     -4.480937    0.289288   -1.369727
H     -4.957489   -1.138519   -0.474178
H     -1.857664   -0.020408   -1.648270
H     -3.352804    0.141523    0.963227
H     -3.605007   -1.036255   -2.842293
H     -3.936038    2.946060    0.094793
H      1.238883    5.569868    0.585144
H      1.539807   -0.078911   -0.470643
