55

C     -4.136656   -2.084390   -1.997693
C     -2.794349    3.484642   -1.765519
C      1.129787    5.640763    0.746945
C      4.871196   -3.216569    1.578458
C      4.411638   -1.925835    1.715452
C     -0.641043   -1.397514   -1.641306
C     -1.818768   -2.372893   -1.446741
C      2.825614   -4.172606    0.915840
C      3.053261    0.637828    1.646119
C     -0.327152    3.279840   -0.238395
C      4.771979   -5.493774    1.023469
C     -3.644360    0.061053   -0.347528
C      4.251034   -4.354389    1.208631
C      3.008105   -1.779704    1.396445
C     -1.262147   -0.251425   -0.869736
C      2.371581   -2.883482    1.052975
C     -2.623539   -0.222755   -1.430900
C      2.542948    1.888159    1.436738
C      2.430109   -0.445927    1.182056
C     -0.958630    2.153904   -0.705467
C      0.837443    3.188675    0.484553
C     -0.478530    0.853967   -0.493437
C      1.325651    1.926892    0.699143
C      0.728151    0.783599    0.249076
Cl     0.553911   -2.802457    1.101983
N      5.329108   -6.735882    0.822275
N     -2.857606   -1.528690   -2.014893
O     -3.671772   -0.962359    0.604062
O      3.089819    2.962020    1.849560
O     -2.109970    2.352092   -1.411454
O      1.531254    4.310688    1.013316
O      1.289257   -0.354010    0.505398
H     -4.526261   -2.124156   -3.073005
H     -4.951102   -1.606290   -1.455827
H     -4.057436   -3.199479   -1.760560
H     -2.788411    3.680858   -2.880209
H     -2.437436    4.430670   -1.324712
H     -3.897938    3.420588   -1.464394
H      0.112377    5.669921    0.391695
H      1.272506    6.354903    1.576187
H      1.856766    5.993637   -0.065358
H      5.959565   -3.403021    1.882550
H      4.967623   -1.108066    2.015057
H     -0.773796   -1.179667   -2.769090
H      0.322235   -1.726702   -1.412374
H     -2.027733   -2.495280   -0.366453
H     -1.677400   -3.299024   -1.994596
H      2.275373   -5.032578    0.653818
H      3.991357    0.594722    2.222393
H     -0.725289    4.259799   -0.437292
H     -3.356249    0.959980    0.292369
H     -4.637740    0.213498   -0.751892
H     -1.387551   -0.818725    0.192872
H     -2.729476    0.513525   -2.265327
H     -3.811305   -0.638574    1.510579
