54

C     -4.552536   -1.244861   -0.181074
C     -3.670830    2.465172    0.614667
C      0.429145    5.476761    1.417303
C      3.495596   -3.732964   -0.856276
C      4.840727   -3.803370   -1.141427
C      2.976159   -2.510871   -0.556515
C      5.629097   -2.691730   -1.131360
C     -1.164350   -1.091215   -1.687861
C     -2.712755   -1.185727   -1.790724
C      3.567003    1.102822    0.125625
C     -0.834421    2.901862    0.675085
C     -1.869771   -2.561394    1.138643
C      3.723570   -1.321481   -0.527774
C     -1.057224   -0.672149   -0.229225
C      5.047797   -1.459968   -0.822494
C     -2.224868   -1.184310    0.497812
C      2.782173    2.214645    0.432461
C      3.003822   -0.087967   -0.201818
C     -1.376519    1.685432    0.336163
C      0.528685    3.104469    0.708587
C     -0.513820    0.637983    0.019773
C      1.416181    2.067011    0.393961
C      0.884432    0.845322    0.059291
Br     6.196238    0.038907   -0.900264
N     -3.213269   -1.548695   -0.507101
O     -2.963890   -3.135906    1.745368
O      3.258666    3.326197    0.738303
O     -2.735631    1.451925    0.296696
O      1.088697    4.310952    1.045468
O      1.672316   -0.155960   -0.220448
H     -4.969653   -0.312248   -0.526663
H     -5.220316   -2.053558   -0.596828
H     -4.647402   -1.252212    0.928264
H     -3.385825    3.365173   -0.014530
H     -4.714214    2.217065    0.301529
H     -3.625495    2.812443    1.662229
H     -0.461211    5.623977    0.745809
H      1.118294    6.318599    1.276889
H      0.113939    5.389093    2.491446
H      2.904688   -4.634813   -0.876494
H      5.312698   -4.765341   -1.394745
H      1.928654   -2.442717   -0.326749
H      6.674169   -2.772778   -1.360584
H     -0.767024   -0.373815   -2.396722
H     -0.774346   -2.089747   -1.895700
H     -2.983214   -1.963551   -2.531226
H     -3.127252   -0.216819   -2.163324
H      4.607491    1.239211    0.201511
H     -1.526262    3.717247    0.914871
H     -0.948159   -2.535912    1.697011
H     -1.669918   -3.214930    0.225103
H     -0.162969   -1.380010    0.108997
H     -2.617737   -0.576290    1.322135
H     -2.709356   -3.338960    2.716927
