48

C     -4.731915    0.735537    0.453798
C      5.419391    2.052596    0.429220
C      4.704318    0.849291    0.412214
C      4.749207    3.256958    0.396349
C     -1.078682    0.968468    0.839572
C     -2.518440    1.035595    1.400696
C      2.647375    2.009787    0.332179
C     -1.099064   -3.637571   -0.287223
C      3.163367   -1.667970    0.350561
C     -2.863895    1.708114   -1.491994
C      3.333745    0.801683    0.361465
C      3.358971    3.221107    0.349305
C     -1.271912    0.127835   -0.428154
C     -2.687272    0.345819   -0.792413
C     -1.593469   -2.368152   -0.352857
C      0.250261   -3.847501   -0.066856
C      2.428677   -2.858435    0.258957
C      2.570333   -0.449897    0.270652
C     -0.844900   -1.246358   -0.217679
C      1.076776   -2.737665    0.079569
C      0.521865   -1.450849   -0.000478
F      2.697554    4.398679    0.319350
N     -3.377723    0.365435    0.489642
O     -2.333351    2.746509   -0.750103
O     -2.979982   -2.255758   -0.579540
O      0.778393   -5.077665    0.016738
O      2.995737   -3.970791    0.339825
O      1.261111   -0.380597    0.100869
H     -4.998399    1.695991   -0.017314
H     -5.115042    0.726796    1.522746
H     -5.341218   -0.081966   -0.050709
H      6.488838    2.106363    0.460859
H      5.253985   -0.070374    0.429127
H      5.263658    4.216622    0.412073
H     -0.415770    0.430866    1.548378
H     -0.716744    1.973879    0.680097
H     -2.539085    0.442214    2.360299
H     -2.804511    2.065012    1.667990
H      1.571353    1.960472    0.290868
H     -1.721714   -4.479149   -0.398844
H      4.226881   -1.803044    0.489604
H     -2.382560    1.572787   -2.461899
H     -3.946663    1.813041   -1.693011
H     -0.658595    0.620173   -1.251091
H     -3.197873   -0.347857   -1.461883
H     -1.548202    3.113782   -1.199062
H     -3.555266   -3.072298   -0.677356
H      1.560450   -5.557513    0.142307
