55

C     -2.359841   -3.527519    0.526297
C     -3.987477    3.108489   -1.075863
C      0.093085    5.634314    0.834723
C      4.757812   -2.682195   -0.993764
C      3.836299   -1.492225   -1.107150
C     -0.866173   -1.374336   -1.927394
C     -1.366773   -2.745147   -1.422602
C      4.276178   -3.085886    1.353030
C      2.763823    1.125174    0.507814
C     -1.335976    3.182267   -0.301507
C      6.319819   -3.591281    0.443591
C     -3.176613   -0.907873    0.863413
C      4.835433   -3.218674    0.108972
C      3.207885   -1.225137    0.114373
C     -1.695187   -0.423781   -1.114422
C      3.350591   -1.894677    1.240741
C     -1.893087   -1.181040    0.244933
C      2.098487    2.296250    0.586603
C      2.338181   -0.039497    0.067845
C     -1.861743    2.003826   -0.769724
C     -0.059585    3.228536    0.101442
C     -1.013285    0.866943   -0.807800
C      0.774834    2.129236    0.081869
C      0.280473    0.902440   -0.396731
Cl     2.503066   -1.482956    2.686076
N      7.556945   -3.894782    0.713020
N     -1.533176   -2.544667   -0.022384
O     -4.291666   -1.288028    0.087517
O      2.569725    3.367528    1.029154
O     -3.176696    1.954761   -1.161738
O      0.529753    4.370490    0.606125
O      1.055803   -0.154247   -0.403918
H     -3.423758   -3.438872    0.146597
H     -2.018883   -4.506289    0.135447
H     -2.348364   -3.568072    1.627773
H     -5.069763    2.872273   -1.191626
H     -3.847036    3.626108   -0.091392
H     -3.634684    3.800667   -1.875301
H      0.338467    6.320019   -0.082487
H     -0.982814    5.743372    0.999883
H      0.641793    6.158581    1.685338
H      5.238580   -2.849617   -1.956800
H      3.760611   -1.010601   -1.991113
H     -1.211753   -1.371169   -3.030969
H      0.201552   -1.272902   -1.988716
H     -2.292161   -3.023102   -1.956112
H     -0.651182   -3.512976   -1.619405
H      4.330803   -3.616073    2.193712
H      3.852546    1.198777    0.893165
H     -1.923942    4.100645   -0.168634
H     -3.373721    0.165315    1.160329
H     -3.397401   -1.445941    1.843941
H     -2.674398   -0.320322   -1.528693
H     -1.029227   -0.833949    0.934495
H     -5.016177   -0.632178    0.094328
