48

C     -4.224441   -1.867919   -0.683469
C     -0.685518   -1.197870    0.148628
C     -1.808581   -2.095814   -0.479736
C      2.847216   -1.180094    1.140506
C      5.442941   -1.575849    0.511757
C     -1.446594    3.330503   -1.582798
C      3.068661    1.803681   -1.039488
C     -2.887765   -1.037663    1.884982
C     -1.419486    0.108317    0.348954
C      3.428239   -0.309859    0.191248
C      4.728689   -0.532631   -0.104800
C      4.856721   -2.393569    1.417799
C      3.519477   -2.197259    1.747805
C     -2.800498   -0.302422    0.516541
C     -1.873883    2.217345   -0.915397
C     -0.088466    3.545618   -1.816328
C      2.166981    2.774255   -1.544553
C      2.561314    0.727162   -0.382301
C     -1.008930    1.242208   -0.437454
C      0.827867    2.586849   -1.347590
C      0.357676    1.460039   -0.667992
Cl     5.590572    0.436990   -1.315945
Cl     5.772205   -3.706180    2.184804
F      2.930567   -3.017642    2.641503
N     -2.960460   -1.293053   -0.535509
O     -4.115799   -1.641740    2.048250
O     -3.223344    2.033475   -0.695236
O      0.306532    4.660287   -2.487943
O      2.614596    3.750044   -2.147924
O      1.247271    0.617754   -0.238649
H     -4.562238   -1.694275   -1.745375
H     -5.026464   -1.343606   -0.072055
H     -4.301941   -2.988501   -0.563350
H      0.153786   -1.168628   -0.534290
H     -0.363681   -1.679210    1.109099
H     -1.448851   -2.289290   -1.526004
H     -1.867008   -3.056635    0.050297
H      1.835388   -1.017232    1.387361
H      6.463712   -1.706030    0.243529
H     -2.156980    4.060314   -1.939860
H      4.082261    2.025382   -1.202327
H     -2.105484   -1.803019    1.996908
H     -2.767431   -0.235669    2.642275
H     -1.077161    0.426833    1.440251
H     -3.607052    0.400327    0.588230
H     -4.112186   -2.620225    1.804233
H     -3.946783    2.656536   -0.981515
H      1.084353    5.087964   -2.799931
