48

C     -3.649775    1.859196    0.740529
C      4.868801    2.660194    0.702139
C      4.000179    1.612942    0.929308
C      4.942607    3.223362   -0.564679
C     -1.072590    0.753196   -1.262477
C     -1.402568    1.577457   -0.039267
C     -0.849072   -3.635925    0.939552
C      3.008428   -0.992788    1.127051
C     -4.044002    0.074166   -1.139841
C     -1.604702   -0.576064   -1.035337
C      3.181499    1.095920   -0.091901
C      4.153698    2.728447   -1.567447
C     -2.873903   -0.212388   -0.241416
C     -1.503929   -2.719452    0.092494
C      0.413386   -3.441452    1.408391
C      2.356487   -2.110155    1.505346
C      2.366094   -0.065392    0.266958
C     -0.840765   -1.570729   -0.278067
C      1.070733   -2.303746    1.032713
C      3.282578    1.657988   -1.294145
C      0.453794   -1.369393    0.190500
Br     2.360540    0.936044   -2.809466
F      4.234215    3.282523   -2.794403
N     -2.543973    0.977938    0.522161
O     -3.856394    1.101306   -2.036307
O     -2.773403   -3.105550   -0.283676
O      1.061983   -4.348788    2.251520
O      2.901432   -2.965018    2.273566
O      1.176161   -0.335557   -0.110307
H     -4.488132    1.327475    1.221023
H     -3.296427    2.607894    1.509629
H     -3.937085    2.464816   -0.142097
H      5.508706    3.079143    1.460637
H      3.970361    1.202073    1.925239
H      5.606984    4.036396   -0.764332
H     -0.045237    0.912075   -1.476841
H     -1.636675    1.229001   -2.122579
H     -1.603664    2.634900   -0.369187
H     -0.535643    1.667503    0.660100
H     -1.386944   -4.548390    1.231972
H      4.018554   -0.775547    1.460243
H     -4.929013    0.307406   -0.484059
H     -4.372612   -0.817873   -1.721519
H     -1.932132   -1.039835   -1.991671
H     -3.123531   -0.956729    0.527115
H     -3.856547    0.799737   -2.981749
H     -3.432911   -2.714082   -0.883641
H      0.654405   -5.204246    2.573319
