48

C     -3.685000    2.478417    0.284366
C      4.669688    2.957644   -1.106522
C      4.930089    1.802794   -1.788479
C     -0.514465    1.235879    1.081635
C     -1.536691    2.408977    1.130584
C      2.998806    1.771143    0.100948
C     -1.270948   -3.554876    0.839726
C      2.974056   -1.855271   -0.528886
C     -3.381575    0.098403   -0.886881
C      3.686018    2.941805   -0.145344
C     -1.537243    0.106634    0.887696
C      3.250673    0.574504   -0.587391
C      4.225096    0.629284   -1.528999
C     -2.146056    0.710722   -0.380715
C     -1.790179   -2.298093    1.020341
C      0.016080   -3.783028    0.417485
C      2.151217   -2.954363   -0.271254
C      2.441307   -0.606105   -0.344337
C     -0.959963   -1.212585    0.757135
C      0.860919   -2.724133    0.151648
C      0.358515   -1.448609    0.326748
Br     4.697061   -0.830444   -2.686067
F      3.426154    4.078474    0.529517
N     -2.342501    2.109376   -0.029167
O     -3.252340   -1.221913   -1.313801
O     -3.118888   -2.158256    1.463159
O      0.528872   -5.072890    0.238527
O      2.616511   -4.111819   -0.433780
O      1.190221   -0.483007    0.065168
H     -3.678036    3.610244    0.350097
H     -4.417447    2.266392   -0.521878
H     -4.037448    2.146260    1.277935
H      5.233551    3.862180   -1.325627
H      5.713015    1.846457   -2.541263
H     -0.023501    1.245366    2.030503
H      0.032414    1.456861    0.169710
H     -1.025897    3.372178    1.095071
H     -2.144679    2.230137    2.036306
H      2.247287    1.754134    0.862162
H     -1.922022   -4.399246    1.045857
H      3.995878   -2.012418   -0.822389
H     -4.253864    0.195203   -0.167069
H     -3.791913    0.630131   -1.797487
H     -2.217317    0.177510    1.750360
H     -1.356875    0.677285   -1.155358
H     -4.167234   -1.496436   -1.614065
H     -3.591365   -1.309829    1.630945
H     -0.079984   -5.841075    0.433130
