51

C      6.718331    1.301477   -0.537117
C     -5.390892    0.775557   -0.591373
C      4.890771    1.726625   -2.098294
C      3.569183    1.579303   -2.445249
C     -2.057080   -0.342817   -1.475234
C     -3.568734   -0.299972   -1.723189
C      4.426729    0.409458   -0.151378
C     -1.656797   -2.489444    2.721620
C      2.742526   -1.298959    1.336641
C     -2.974488    2.168464    0.008128
C      5.308686    1.139543   -0.954833
C     -1.924032   -0.030921   -0.058195
C      3.096751    0.250739   -0.485002
C      2.691918    0.859508   -1.663225
C     -3.146845    0.684040    0.355022
C     -2.154737   -1.699370    1.750395
C     -0.259982   -2.622495    2.876452
C      1.904241   -2.026652    2.181196
C      2.182858   -0.510263    0.377347
C     -1.383856   -0.972933    0.855707
C      0.558117   -1.914934    2.009212
C      0.008025   -1.095444    1.009707
Cl     1.069680    0.729828   -2.195463
N     -4.150977    0.075973   -0.476453
O     -2.601952    2.388176   -1.288037
O     -3.534604   -1.544415    1.552182
O      0.185546   -3.433807    3.867003
O      2.443755   -2.747133    3.056332
O      0.852685   -0.440972    0.248065
H      6.908034    0.665688    0.337018
H      7.463189    0.990027   -1.307363
H      6.927837    2.387318   -0.288096
H     -6.001100    0.597756    0.309225
H     -5.321095    1.862149   -0.749704
H     -5.969205    0.286961   -1.445899
H      5.618143    2.302848   -2.695000
H      3.261973    2.076618   -3.389645
H     -1.621726   -1.292145   -1.848605
H     -1.670950    0.456316   -2.120257
H     -3.989496   -1.232591   -2.080173
H     -3.842695    0.476370   -2.479850
H      4.811194   -0.033522    0.751718
H     -2.283067   -3.040454    3.402234
H      3.827622   -1.419228    1.497112
H     -2.156169    2.588052    0.671849
H     -3.871344    2.750934    0.289600
H     -1.097027    0.848474   -0.040596
H     -3.393201    0.619563    1.433560
H     -2.297574    3.278022   -1.523656
H     -4.150831   -2.039731    2.173471
H      1.002657   -3.747585    4.246841
