54

C     -3.764263   -2.636538   -0.237753
C     -3.415855    3.462130    0.596722
C      0.744117    5.524089   -0.728548
C      4.641121   -4.146991   -0.237740
C      3.865821   -3.880442    0.852973
C     -0.940461   -1.375956    1.665126
C     -2.197729   -2.303581    1.593032
C      3.986209   -2.023963   -1.121774
C      3.215643    0.653788   -0.439987
C     -0.709924    3.226508    0.045672
C     -2.434595   -0.484319   -1.537009
C      4.697833   -3.182218   -1.249275
C     -1.603886   -0.249987    0.832953
C      3.176448   -1.742684    0.003800
C      3.144062   -2.677621    0.959067
C     -1.831580   -1.162454   -0.389214
C      2.614114    1.868721   -0.503463
C      2.479496   -0.473495   -0.039053
C     -1.409014    2.114520    0.429933
C      0.629897    3.172594   -0.255895
C     -0.758073    0.868908    0.527855
C      1.280911    1.956751   -0.169895
C      0.569882    0.839944    0.219271
Br     2.229409   -2.378215    2.612096
Cl     5.664638   -3.480062   -2.659919
N     -2.459688   -2.314065    0.165394
O     -2.518331   -1.371051   -2.661590
O      3.277513    2.877968   -0.858452
O     -2.785947    2.214369    0.730401
O      1.374474    4.257744   -0.641400
O      1.233367   -0.299381    0.260864
H     -4.286833   -1.839379   -0.813773
H     -4.406657   -2.841764    0.642291
H     -3.722351   -3.596365   -0.809410
H     -3.292372    3.848691   -0.462663
H     -3.080517    4.235444    1.283144
H     -4.524377    3.379066    0.702079
H      0.220861    5.734909    0.259443
H      1.506464    6.355563   -0.816306
H     -0.029657    5.606056   -1.499776
H      5.201255   -5.081730   -0.333052
H      3.803710   -4.611547    1.649359
H     -0.687165   -1.098659    2.660530
H     -0.215122   -1.909679    1.039324
H     -2.989489   -1.673328    2.065304
H     -2.043787   -3.249800    2.072000
H      4.042860   -1.294302   -1.912865
H      4.271214    0.491354   -0.681649
H     -1.218561    4.182268   -0.024515
H     -3.398689    0.027477   -1.399863
H     -1.685817    0.293538   -1.896887
H     -2.556706   -0.037926    1.272345
H     -0.817816   -1.539512   -0.737749
H     -2.086060   -2.235382   -2.355980
