48

C     -3.561039    2.676814    0.042948
C      4.733687    2.651184   -2.145165
C      3.517480    3.004360   -1.642234
C     -1.381385    0.322128   -1.495970
C     -2.134958    1.634474   -1.496687
C      4.347765    0.404356   -1.543386
C     -1.023142   -3.421190    1.634896
C      3.027148   -1.389162    0.254500
C     -2.996520    0.574619    1.819167
C      5.166303    1.347324   -2.102329
C     -1.862637   -0.354360   -0.251022
C      3.081300    0.696633   -1.007087
C      2.721420    2.003642   -1.081336
C     -2.083250    0.839062    0.673989
C     -1.678582   -2.407472    1.021085
C      0.386606   -3.470838    1.620318
C      2.426160   -2.433578    0.913537
C      2.305616   -0.349776   -0.361932
C     -1.010006   -1.363919    0.347051
C      1.051629   -2.474390    0.978210
C      0.355142   -1.424652    0.347255
Br     1.101119    2.619797   -0.294729
Cl     6.748535    0.945071   -2.767102
N     -2.360921    1.959908   -0.131481
O     -4.310892    0.327174    1.512039
O     -3.082883   -2.434501    1.077598
O      1.011164   -4.501801    2.241829
O      3.138104   -3.334566    1.447196
O      1.021468   -0.460037   -0.261044
H     -3.444037    3.485331    0.827200
H     -4.494944    2.124282    0.130001
H     -3.699800    3.299499   -0.901589
H      5.379461    3.403535   -2.589555
H      3.164236    4.041273   -1.673271
H     -1.753548   -0.286886   -2.409255
H     -0.331030    0.513089   -1.613497
H     -1.545712    2.425194   -2.030167
H     -3.072542    1.474758   -2.072711
H      4.680003   -0.615187   -1.517703
H     -1.543676   -4.236059    2.160375
H      4.099097   -1.344040    0.205768
H     -2.629178   -0.210115    2.503827
H     -3.037293    1.489788    2.507412
H     -2.873498   -0.756657   -0.488972
H     -1.069739    1.042924    1.150878
H     -4.809049   -0.156059    2.187510
H     -3.598567   -3.157642    1.544796
H      1.925387   -4.723334    2.347493
