48

C     -3.917565    1.319854   -2.197513
C      4.745192    2.531679   -1.572986
C      5.230782    1.271170   -1.538672
C     -0.588310    0.619578   -1.049910
C     -1.588779    1.223904   -2.018457
C      2.896353    1.813098   -0.276610
C     -1.399614   -3.080230    1.939680
C      3.032024   -1.632956    1.050056
C     -3.538799    1.266236    0.932575
C      3.560557    2.816152   -0.936764
C     -1.435958    0.189439    0.086166
C      3.356434    0.501779   -0.215201
C      4.536722    0.246255   -0.854198
C     -2.818548    0.493386   -0.198993
C     -1.838337   -1.979614    1.276146
C     -0.013831   -3.327185    2.078441
C      2.214514   -2.588582    1.623412
C      2.539845   -0.552534    0.401551
C     -1.022409   -1.058912    0.713021
C      0.834028   -2.407736    1.517214
C      0.368055   -1.283220    0.841073
Br     5.300462   -1.509692   -0.912917
Cl     2.873384    4.453828   -0.961112
N     -2.786499    1.461423   -1.321900
O     -2.800742    2.424785    1.228051
O     -3.222580   -1.820536    1.187578
O      0.380231   -4.441618    2.751759
O      2.699678   -3.573454    2.212070
O      1.234634   -0.436003    0.331559
H     -4.795187    0.882076   -1.661666
H     -3.688802    0.583624   -3.026230
H     -4.197818    2.285859   -2.683685
H      5.259958    3.326327   -2.094815
H      6.177070    1.046311   -2.035198
H     -0.195442   -0.290232   -1.600285
H      0.212070    1.321488   -0.821116
H     -1.162651    2.236581   -2.314141
H     -1.706582    0.639586   -2.959498
H      1.980805    2.040589    0.261401
H     -2.070760   -3.808837    2.384699
H      4.103989   -1.751402    1.164201
H     -4.543124    1.537521    0.594226
H     -3.572611    0.665112    1.819574
H     -1.142430    1.001655    0.920708
H     -3.508612   -0.274819   -0.529223
H     -3.283363    2.939068    1.893940
H     -3.899496   -2.466091    1.571004
H      1.202063   -4.854711    3.000986
