51

C     -3.653645   -2.729311   -0.225066
C     -2.727918    3.605895    0.064261
C      1.920352    5.228203    0.439010
C      4.769853   -4.087825   -0.167095
C      4.510238   -2.781459   -0.074123
C     -0.719098   -1.670149    0.399059
C     -1.864748   -2.289625    1.190834
C      3.708187   -4.968649   -0.282250
C      3.624644    0.052624    0.122398
C     -0.002505    3.045458    0.165425
C     -3.634258   -0.486249   -1.257374
C     -1.325169   -0.457985   -0.283689
C     -2.746349   -0.476196   -0.014505
C      3.174465    1.345546    0.205147
C      2.724139   -0.973482   -0.007325
C     -0.882583    1.991251    0.036825
C      1.357998    2.846022    0.225891
C      3.247910   -2.332665   -0.091865
C     -0.477894    0.691625   -0.039993
C      1.794782    1.539844    0.150565
C      0.909800    0.483936    0.019548
N     -3.060324   -1.751571    0.657752
O     -3.459270    0.625328   -2.062580
O      3.941186    2.317313    0.323676
O     -2.212207    2.300356   -0.008080
O      2.264516    3.879290    0.355010
O      1.462549   -0.701054   -0.049091
S      2.298481   -3.816356   -0.250361
H     -4.681426   -2.509418   -0.550125
H     -3.787846   -3.648536    0.433275
H     -2.974907   -3.096436   -1.019157
H     -2.339430    4.151546    0.951548
H     -2.364453    4.152458   -0.846274
H     -3.830062    3.622744   -0.011030
H      2.845929    5.837927    0.378105
H      1.263431    5.566018   -0.392408
H      1.408615    5.393957    1.414291
H      5.824490   -4.507558   -0.156658
H      5.348506   -2.031009    0.020608
H     -0.006944   -1.370489    1.235429
H     -0.267092   -2.372384   -0.292261
H     -1.759790   -2.192344    2.278100
H     -1.809217   -3.402201    0.995067
H      3.639893   -6.057924   -0.371132
H      4.683115   -0.125539    0.160691
H     -0.333660    4.073472    0.225410
H     -3.464356   -1.368667   -1.899787
H     -4.721457   -0.572848   -0.939461
H     -1.172804   -0.664014   -1.422811
H     -3.095867    0.284269    0.714413
H     -3.347802    0.406863   -3.022394
