56

C     -2.972104    2.648690    2.761573
C     -4.357719   -2.510569    0.095242
C     -0.979570   -5.690939   -0.902810
C      4.157442    2.851542    0.147206
C      3.291403    1.775253    0.149018
C     -0.298115    1.530546    0.533938
C     -0.992466    2.623883    1.350066
C      5.529587    1.705657   -1.362623
C      2.851918   -1.766524   -0.874316
C     -1.684178   -3.047021   -0.384775
C     -3.664536    1.846781    0.288178
C      5.291777    2.812940   -0.619778
C      3.506933    0.618547   -0.604889
C     -1.445766    0.671286    0.121083
C      4.647604    0.613953   -1.360936
C     -2.591211    1.007990    0.992275
C      1.873423   -2.750766   -0.875061
C      2.503093   -0.471332   -0.621277
C     -2.037514   -1.714780   -0.122578
C     -0.375863   -3.371722   -0.630312
C     -1.088484   -0.717745   -0.106700
C      0.577621   -2.381189   -0.616848
C      0.233948   -1.055852   -0.357994
Br     5.111613   -0.806681   -2.552168
N     -2.045584    1.923451    2.001291
N      6.190379    3.926402   -0.620734
O     -4.324330    1.199314   -0.716535
O      2.219354   -3.950090   -1.114538
O      7.315942    3.856893   -1.393117
O      5.946693    4.929151    0.066584
O     -3.383894   -1.520145    0.107416
O      0.017778   -4.696739   -0.896252
O      1.232203   -0.210866   -0.381865
H     -2.523542    3.027909    3.718746
H     -3.843881    2.010655    3.018725
H     -3.359369    3.510600    2.180250
H     -4.040668   -3.352862    0.756603
H     -4.514223   -2.941449   -0.929270
H     -5.317899   -2.063737    0.441606
H     -1.402701   -5.769269    0.108150
H     -0.610786   -6.657262   -1.288711
H     -1.801249   -5.386939   -1.597929
H      3.975966    3.744801    0.738856
H      2.430951    1.836798    0.773681
H      0.330001    0.951196    1.281402
H      0.286961    1.906649   -0.298558
H     -0.295325    3.076947    2.091371
H     -1.383089    3.357868    0.635840
H      6.427249    1.661504   -1.975851
H      3.879878   -2.022383   -1.029748
H     -2.409187   -3.839934   -0.402037
H     -3.179625    2.798013   -0.042928
H     -4.374830    2.159949    1.102922
H     -1.742847    1.071242   -0.923031
H     -3.109835    0.204495    1.504837
H     -3.679327    0.835891   -1.362694
