48

C     -4.837495    1.173600   -0.149298
C      2.792611    1.634841   -1.053335
C      4.751405    0.309577   -1.040482
C      3.531555    2.745439   -1.489639
C      5.504728    1.403892   -1.471599
C     -1.366505    0.635270   -1.317013
C     -2.872052    0.876910   -1.568982
C     -1.167451   -3.329029    1.352514
C      3.115674   -1.892148    0.017472
C     -2.449527    2.247063    1.128767
C      3.409880    0.423643   -0.831554
C      4.898548    2.599102   -1.689680
C     -1.337719    0.275844    0.171668
C     -2.594418    0.775219    0.737543
C     -1.656946   -2.093163    0.982412
C      0.162123   -3.613284    1.190997
C      2.329822   -2.900742    0.516962
C      2.562072   -0.690464   -0.316879
C     -0.871437   -1.077864    0.442977
C      0.987367   -2.654387    0.664098
C      0.485287   -1.410568    0.300670
Br     5.894575    4.103131   -2.252516
N     -3.558795    0.632096   -0.337649
O     -1.459607    2.384374    2.131998
O     -3.019685   -1.854300    1.151010
O      0.734562   -4.812811    1.523535
O      2.800854   -4.030623    0.840630
O      1.254849   -0.456154   -0.182480
H     -5.025841    1.667748    0.836555
H     -5.208712    1.885519   -0.952091
H     -5.577474    0.319555   -0.247968
H      1.743051    1.726894   -0.886295
H      5.262706   -0.632678   -0.870849
H      3.073468    3.690823   -1.654214
H      6.586393    1.339045   -1.652469
H     -0.830810    1.531953   -1.587128
H     -1.059433   -0.181654   -1.972862
H     -3.286140    0.154684   -2.308320
H     -3.027598    1.909528   -1.999239
H     -1.808482   -4.088232    1.770059
H      4.186719   -2.092713   -0.101469
H     -3.403343    2.565864    1.606541
H     -2.132564    2.857743    0.272441
H     -0.496258    1.004549    0.557817
H     -2.969444    0.272625    1.625843
H     -0.640380    2.794400    1.755514
H     -3.638751   -2.522529    1.538994
H      0.228617   -5.607590    1.934578
