48

C     -1.615889    1.698180   -1.099875
C      3.853737    2.023318   -3.183219
C      3.244366    0.859949   -2.686057
C      3.539097    3.253450   -2.652436
C     -2.970857   -0.277536    0.345460
C     -3.341125    1.178664    0.434793
C      2.031484    2.137052   -1.149657
C     -0.599558   -3.822017    1.439387
C      2.546753   -1.454379   -1.287989
C     -1.549002    1.761623    2.580118
C      2.330035    0.910054   -1.666353
C      2.627286    3.307576   -1.634759
C     -1.778676   -0.343062    1.313891
C     -1.229326    1.044861    1.250604
C     -1.317304   -2.683404    1.635881
C      0.523671   -3.776739    0.650535
C      2.092429   -2.616312   -0.706289
C      1.781591   -0.292616   -1.055006
C     -0.906867   -1.462695    1.028873
C      0.950935   -2.607193    0.051825
C      0.216688   -1.426562    0.252086
Cl     2.245336    4.892205   -0.999917
N     -1.992084    1.750257    0.260259
O     -0.881977    1.185475    3.655505
O     -2.472038   -2.648537    2.426596
O      1.302150   -4.922716    0.406060
O      2.772466   -3.682041   -0.903058
O      0.704009   -0.353673   -0.329373
H     -1.470645    0.651467   -1.423943
H     -2.528730    2.021517   -1.710693
H     -0.730213    2.256696   -1.418232
H      4.573034    1.975476   -3.986432
H      3.508636   -0.091914   -3.141038
H      4.020904    4.175448   -3.033993
H     -2.788247   -0.570648   -0.659792
H     -3.841837   -0.826189    0.827552
H     -4.019619    1.489748   -0.400566
H     -3.821374    1.472108    1.357009
H      1.330288    2.267998   -0.341206
H     -0.896623   -4.776586    1.897427
H      3.442182   -1.429003   -1.870424
H     -2.614568    1.712382    2.810925
H     -1.241319    2.832669    2.532288
H     -2.224340   -0.483500    2.342361
H     -0.131059    1.108124    1.103856
H     -0.900778    1.859358    4.392553
H     -2.788906   -3.502949    2.875392
H      1.015884   -5.775385    0.824327
