48

C      4.373461    0.203308    1.423724
C     -5.231597    0.089082    2.474063
C     -5.142376    1.456892    2.586124
C     -4.370360   -0.602940    1.673188
C     -4.168296    2.116517    1.871242
C      0.844860    0.692185    1.018117
C      2.064943    0.653614    1.938634
C      1.237801   -2.311610   -2.715221
C     -2.976706   -1.754901   -0.635533
C      2.940141    2.573695   -0.476631
C     -3.388262    0.072565    0.959578
C      1.453182    0.635754   -0.353444
C     -3.306148    1.434253    1.068572
C      2.807439    1.037900   -0.239383
C      1.693962   -1.238690   -2.003903
C     -0.063135   -2.704007   -2.528040
C     -2.165499   -2.434421   -1.492332
C     -2.475591   -0.659751    0.056952
C      0.949448   -0.500743   -1.095787
C     -0.846157   -2.015835   -1.652376
C     -0.359748   -0.907517   -0.929058
Br    -2.109269    2.461078   -0.014114
N      3.181968    0.932580    1.166467
O      2.627051    2.892921   -1.772500
O      2.988316   -0.865325   -2.207113
O     -0.589931   -3.799377   -3.220502
O     -2.581428   -3.437512   -2.149509
O     -1.243355   -0.343601   -0.146011
H      4.961776    0.112475    0.501744
H      4.149184   -0.800058    1.853106
H      4.943723    0.769238    2.206560
H     -5.992675   -0.439859    3.033616
H     -5.826097    1.995045    3.232266
H     -4.435481   -1.674357    1.581152
H     -4.085582    3.192563    1.954142
H      0.259862   -0.244398    1.227335
H      0.252911    1.591599    1.235716
H      2.075136   -0.355331    2.406136
H      1.868725    1.375737    2.782055
H      1.873177   -2.846899   -3.412817
H     -4.009713   -2.063172   -0.494153
H      2.257005    3.111262    0.196166
H      3.976935    2.909234   -0.289049
H      0.894662    1.527653   -0.887117
H      3.644958    0.550237   -0.758106
H      3.420311    3.225046   -2.279013
H      3.607664   -1.333639   -2.839204
H      0.018808   -4.278490   -3.855740
