52

C      4.861681    0.565201   -0.440505
C     -4.523461   -0.778905    2.041252
C      2.968439   -2.263830    2.194397
C      2.295859   -1.727019    1.122413
C     -1.122675   -0.531153    0.858910
C     -2.208576   -1.121731    1.755431
C      4.868684   -0.976042    1.463395
C     -1.692566    1.578444   -3.455899
C      2.571869   -0.005333   -2.068223
C      5.059686   -2.363328    3.418525
C     -3.633879    2.020145    1.139855
C      4.145620   -0.449962    0.384299
C      4.293054   -1.855601    2.339107
C      2.847326   -0.837436    0.220281
C     -1.842861    0.577896    0.160289
C     -3.208210    0.625410    0.620063
C     -2.251142    1.307084   -2.179768
C     -0.377707    1.312204   -3.718197
C      1.760001    0.527966   -3.053480
C      2.005241   -0.254414   -0.852590
C     -1.439130    0.771513   -1.211669
C      0.442883    0.767507   -2.735358
C     -0.083616    0.500609   -1.493552
N      5.699256   -2.810290    4.322766
N     -3.234672   -0.166238    1.848437
O     -2.719271    2.439937    2.118074
O     -3.518391    1.565150   -1.953498
O      0.198757    1.564545   -4.952330
O      2.228575    0.778238   -4.196942
O      0.734838   -0.000847   -0.616155
H      5.577733    0.146805   -1.149817
H      4.191543    1.359516   -0.823713
H      5.535057    1.164406    0.279391
H     -4.421001   -1.815613    2.475021
H     -5.078871   -0.902974    1.102106
H     -5.127546   -0.231489    2.806864
H      2.547917   -2.957903    2.907613
H      1.251180   -2.051269    0.988199
H     -0.835218   -1.309459    0.100032
H     -0.271373   -0.216332    1.476589
H     -2.619311   -2.011589    1.201040
H     -1.781626   -1.450268    2.727294
H      5.918474   -0.660649    1.588315
H     -2.346063    1.994080   -4.189834
H      3.598430   -0.221156   -2.352909
H     -3.542920    2.729885    0.323873
H     -4.620167    1.988151    1.628703
H     -1.348862    1.534242    0.686273
H     -3.994577    0.181121   -0.001476
H     -2.999483    3.251416    2.569633
H     -4.378227    1.722928   -1.746740
H     -0.380703    1.957425   -5.675787
