51

C     -1.361219    1.928633   -1.240840
C      3.692391    0.071275    0.044200
C      2.215674    1.709204   -0.748422
C      4.718297    0.968933    0.143160
C      3.268943    2.647948   -0.651413
C     -3.564166   -0.005180    0.731488
C     -3.206763    0.641483   -0.558803
C     -2.277730   -3.940638    0.001323
C      1.834747   -1.871156   -1.097962
C     -2.066708    1.983978    1.591442
C      2.384199    0.418194   -0.409478
C      4.510103    2.275422   -0.206927
C     -2.251777   -0.488807    1.385915
C     -1.475163    0.767402    0.916095
C     -2.651901   -2.793804    0.625000
C     -1.035015   -4.044354   -0.655814
C      1.053321   -2.986590   -1.204341
C      1.441697   -0.700236   -0.459797
C     -1.806770   -1.669976    0.627999
C     -0.227265   -2.956141   -0.632534
C     -0.575734   -1.751778    0.001581
C      5.630432    3.242655   -0.075332
F      5.941292    3.352593    1.288623
F      5.196561    4.470861   -0.546863
F      6.743587    2.789614   -0.721236
N     -1.750123    0.773300   -0.465436
O     -1.835350    2.005805    2.962208
O     -3.884751   -2.706598    1.289614
O     -0.720285   -5.209280   -1.275552
O      1.445912   -4.023954   -1.795909
O      0.243426   -0.734713    0.040701
H     -0.758622    1.561539   -2.091279
H     -2.291210    2.345086   -1.754998
H     -0.840732    2.684484   -0.694542
H      3.852907   -0.953378    0.323146
H      1.285299    2.032197   -1.132248
H      5.715956    0.647771    0.509389
H      3.086332    3.670087   -0.930506
H     -4.273824   -0.804828    0.505327
H     -4.092976    0.643850    1.478055
H     -3.384550    0.037561   -1.460167
H     -3.671357    1.637984   -0.721627
H     -2.914681   -4.781224    0.016215
H      2.828235   -1.920407   -1.543383
H     -3.071677    2.247731    1.365339
H     -1.424445    2.853064    1.209694
H     -2.313320   -0.587049    2.451179
H     -0.436503    0.761416    1.252349
H     -2.424326    2.744840    3.339966
H     -4.517080   -3.472081    1.333143
H      0.016712   -5.512740   -1.782167
