49

C     -1.799661   -3.064153   -0.535743
C      4.586203   -2.953757    0.597386
C      3.397847   -2.878632    1.282075
C     -3.020764    0.191919   -1.220363
C     -2.526993   -1.110974   -1.671060
C      3.957744   -0.895318   -0.449262
C     -1.337578    4.028081   -0.269759
C      2.677020    1.564824   -0.110747
C     -2.321038   -1.263287    1.871884
C      4.843724   -1.924903   -0.279082
C     -2.345001    0.509364    0.102520
C      2.746758   -0.833692    0.257940
C      2.495301   -1.841281    1.117686
C     -1.858287   -0.860639    0.487469
C     -2.041013    2.873971   -0.105090
C      0.041691    3.985882   -0.331979
C      2.035617    2.747675   -0.253662
C      1.930012    0.384092    0.076142
C     -1.423734    1.601180    0.011427
C      0.665472    2.771573   -0.215983
C     -0.071932    1.584956   -0.037881
Cl     1.066979   -1.777004    2.144135
N     -2.574371   -1.835700   -0.395731
O     -3.727199   -1.114194    1.904531
O      6.047596   -1.987856   -0.981280
O     -3.421054    2.855311   -0.041831
O      0.773649    5.168929   -0.517932
O      2.662665    3.845995   -0.423145
O      0.654312    0.503326    0.090856
H     -1.682423   -3.506612    0.460578
H     -2.458480   -3.739831   -1.129635
H     -0.842784   -2.888564   -1.021372
H      5.309804   -3.750169    0.712147
H      3.136380   -3.651324    1.989661
H     -2.981977    1.027243   -1.938305
H     -4.125765    0.069694   -1.001669
H     -3.271120   -1.653456   -2.333605
H     -1.514943   -1.146709   -2.133478
H      4.173425   -0.105989   -1.148653
H     -1.840122    4.988412   -0.352729
H      3.763758    1.515979   -0.132666
H     -2.091772   -2.318606    2.017303
H     -1.931068   -0.608353    2.682747
H     -3.158824    0.768006    0.818407
H     -0.797565   -0.975252    0.313067
H     -4.126986   -1.569070    2.672444
H      6.013318   -2.474251   -1.862010
H     -3.936190    3.717493   -0.113570
H      0.249370    6.025672   -0.602181
