48

C     -4.127265   -1.450143    0.277785
C      3.617871   -3.185763    0.221102
C      2.832528   -2.088434   -0.151780
C      4.849689   -2.977393    0.772341
C     -1.111972   -1.434911   -1.010789
C     -2.134542   -2.461903   -0.441590
C      4.513667   -0.614749    0.576999
C     -1.360838    3.467382   -1.093201
C      2.941465    1.600715   -0.408326
C     -2.452217    0.318486    1.913541
C      3.252148   -0.802495    0.014792
C      5.293945   -1.690617    0.948467
C     -1.798447   -0.154829   -0.527736
C     -1.965364   -0.625469    0.901931
C     -1.859753    2.221550   -0.940155
C      0.007834    3.631974   -1.012154
C      2.184549    2.703958   -0.665060
C      2.350030    0.334075   -0.263539
C     -1.059248    1.075642   -0.701021
C      0.811698    2.527004   -0.775603
C      0.297399    1.263352   -0.619697
Cl     6.881245   -1.468754    1.665660
N     -2.792076   -1.801453    0.665056
O     -2.559425   -0.303520    3.193859
O     -3.264292    2.050724   -1.025206
O      0.587231    4.869109   -1.163115
O      2.644757    3.868818   -0.808003
O      1.056320    0.219161   -0.377051
H     -4.436482   -0.421030    0.579199
H     -4.308184   -1.492587   -0.812080
H     -4.884079   -2.149376    0.728758
H      3.282094   -4.214785    0.093189
H      1.887298   -2.330660   -0.589452
H      5.481968   -3.819881    1.077057
H     -1.194848   -1.496698   -2.122908
H     -0.162777   -1.626958   -0.561007
H     -2.882040   -2.681877   -1.209351
H     -1.655505   -3.359362   -0.074378
H      4.898193    0.364297    0.734749
H     -2.022196    4.310358   -1.274793
H      4.009265    1.723512   -0.335207
H     -3.387058    0.855699    1.722184
H     -1.665706    1.104793    2.100258
H     -2.796603   -0.161737   -1.005739
H     -0.958153   -1.051088    1.180949
H     -2.978459   -1.186051    3.145296
H     -3.861860    2.840797   -1.204980
H     -0.001807    5.701121   -1.339253
