54

C     -2.524412   -2.084823    1.795579
C     -3.934070    2.507960   -0.964921
C     -0.642790    5.408302    0.982690
C      5.422983   -3.242886    0.177495
C      5.889587   -1.949040    0.202464
C     -0.377427   -1.841502   -1.060238
C     -0.661023   -2.424338    0.308838
C      3.222639   -2.341333    0.334153
C      3.035317    1.289927    0.871783
C     -1.354479    2.869974   -0.027503
C     -3.349392   -1.924578   -1.468601
C      4.065631   -3.428380    0.244503
C     -1.211224   -0.635858   -1.084423
C      3.672215   -1.014762    0.361712
C      5.028496   -0.849915    0.292122
C     -2.490138   -1.195656   -0.438297
C      2.106867    2.299195    0.892795
C      2.691019    0.070722    0.385299
C     -1.720424    1.648103   -0.521170
C     -0.097590    3.132724    0.453914
C     -0.756499    0.619993   -0.530622
C      0.815613    2.101365    0.426339
C      0.522025    0.822868   -0.061290
Cl     5.797843    0.711085    0.231821
I      3.257959   -5.370978    0.211183
N     -2.060951   -2.261533    0.458599
O     -3.873006   -1.121754   -2.439104
O      2.403711    3.444497    1.340454
O     -3.016053    1.434385   -1.002823
O      0.300667    4.358337    0.959119
O      1.463880   -0.094905   -0.049296
H     -2.647773   -3.106759    2.255894
H     -1.839047   -1.526914    2.456661
H     -3.541777   -1.635704    1.755431
H     -4.853783    2.285683   -1.550633
H     -3.511009    3.434866   -1.452905
H     -4.178648    2.807384    0.074391
H     -1.581818    5.049964    1.441915
H     -0.902431    5.775850   -0.037759
H     -0.202396    6.281442    1.530921
H      6.061962   -4.105829    0.108913
H      6.962047   -1.822002    0.149088
H     -0.765788   -2.564342   -1.849420
H      0.677987   -1.790483   -1.222367
H     -0.056420   -1.998559    1.102950
H     -0.444584   -3.524913    0.210572
H      2.151745   -2.462813    0.405373
H      3.989701    1.502613    1.275250
H     -2.094220    3.686255   -0.010836
H     -4.176865   -2.380121   -0.844508
H     -2.780042   -2.788244   -1.840289
H     -1.570419   -0.428680   -2.163754
H     -3.026433   -0.489074    0.177405
H     -3.296964   -1.136814   -3.254871
