48

C     -3.735913    1.971048   -0.795056
C      5.345471    1.993637   -0.814022
C      4.332503    1.116084   -1.019590
C      5.475327    2.564093    0.436828
C     -0.840848    1.102616    1.145855
C     -1.424056    1.860791   -0.075225
C     -1.363745   -3.303851   -0.951554
C      2.891126   -1.289970   -1.237421
C     -3.805183    0.186229    1.810214
C     -1.461930   -0.199734    1.006284
C      3.391191    0.735566   -0.047380
C      4.585917    2.226211    1.420362
C     -2.883684    0.194878    0.611166
C     -1.772782   -2.287860   -0.132277
C     -0.060723   -3.355743   -1.484469
C      2.082511   -2.328742   -1.623181
C      2.398749   -0.287048   -0.382728
C     -0.921046   -1.258321    0.211698
C      0.791647   -2.347514   -1.148667
C      3.552932    1.315305    1.174262
C      0.359302   -1.302173   -0.297644
Cl     2.540495    0.841985    2.511095
F      4.686419    2.769951    2.658241
N     -2.817070    1.631736    0.239898
O     -5.062120    0.689254    1.494283
O     -3.102899   -2.377118    0.325314
O      0.280547   -4.383981   -2.290881
O      2.519037   -3.230748   -2.387332
O      1.169626   -0.356157    0.030136
H     -4.483259    2.709643   -0.379352
H     -3.266097    2.378331   -1.709010
H     -4.330740    1.072105   -1.046315
H      6.069944    2.280034   -1.572889
H      4.214816    0.667019   -1.991297
H      6.274605    3.275272    0.648414
H      0.181644    1.288951    1.278763
H     -1.368802    1.626698    2.008396
H     -1.144491    2.925154    0.070803
H     -1.087179    1.424232   -1.014888
H     -2.031317   -4.113435   -1.223949
H      3.907732   -1.269916   -1.603685
H     -3.347895    0.914428    2.546790
H     -3.925828   -0.766755    2.312567
H     -1.577737   -0.629118    2.061621
H     -3.260901   -0.276330   -0.285854
H     -5.329926    1.327895    2.173672
H     -3.719685   -3.108059    0.083771
H      1.074314   -4.616574   -2.745764
