54

C     -3.314986   -3.166408    0.330154
C     -3.478356    3.274738   -0.629614
C      0.431307    5.404201    1.150646
C      5.345208   -2.759152    1.041801
C      4.422649   -1.743393    1.039070
C      5.353487   -3.658894    0.006182
C     -0.751101   -1.484645   -1.531600
C     -1.912549   -2.532091   -1.491548
C      3.231674    0.755299    0.634610
C     -0.815220    3.142144    0.130481
C     -3.263895   -0.509101    0.840109
C     -1.490833   -0.354267   -0.881107
C      3.470268   -1.575219    0.012647
C      4.453342   -3.532421   -1.005098
C     -1.997550   -1.123640    0.357218
C      2.545131    1.916117    0.768499
C      2.615448   -0.413451    0.110896
C     -1.439572    2.025761   -0.373374
C      0.504206    3.096123    0.506186
C     -0.722581    0.823401   -0.504725
C      1.222027    1.927130    0.380844
C      3.511615   -2.470845   -0.983125
C      0.619288    0.777782   -0.129690
Br     2.419116   -2.351119   -2.537226
F      4.481550   -4.428836   -2.010479
N     -2.134230   -2.487999   -0.051135
O     -4.276156   -0.462488   -0.113587
O      3.092258    2.969465    1.235488
O     -2.771647    2.057974   -0.767609
O      1.165944    4.208367    1.022800
O      1.367383   -0.296157   -0.223841
H     -3.253966   -4.212116   -0.063195
H     -3.310946   -3.303816    1.449658
H     -4.251588   -2.756343   -0.045715
H     -4.552913    3.157370   -0.884339
H     -2.964951    4.033445   -1.261397
H     -3.377490    3.647136    0.428933
H      0.962197    6.151019    1.778899
H     -0.558883    5.265318    1.637775
H      0.267445    5.781870    0.121653
H      6.060769   -2.871673    1.830184
H      4.426348   -1.053434    1.862710
H      6.069279   -4.472538   -0.018545
H     -0.434499   -1.300237   -2.548252
H     -0.001023   -1.947241   -0.868628
H     -2.739404   -2.061825   -2.028452
H     -1.565246   -3.492505   -1.850390
H      4.276826    0.683035    0.915468
H     -1.388209    4.054353    0.223281
H     -3.665666   -1.083529    1.742218
H     -3.074810    0.488892    1.260068
H     -2.366183   -0.111174   -1.499646
H     -1.257847   -1.078912    1.173202
H     -5.182465   -0.545474    0.310640
