48

C     -3.379410    2.212088   -1.611449
C      5.206091   -0.370569   -2.430381
C      4.406248   -0.777350   -1.382325
C      4.813064    0.620629   -3.308951
C     -1.343414   -0.722061   -1.273422
C     -2.237466    0.198699   -2.087825
C     -0.920662   -1.608368    3.530912
C      3.095551   -0.995882    1.142672
C     -3.229206    1.495327    0.860458
C     -1.811379   -0.442448    0.109406
C      3.149556   -0.200667   -1.156725
C      3.584051    1.194810   -3.097816
C     -2.034701    1.077134    0.067128
C     -1.597529   -1.209948    2.422210
C      0.443665   -1.664308    3.504195
C      2.475131   -1.363782    2.314706
C      2.365763   -0.578584    0.009302
C     -0.946707   -0.840621    1.211379
C      1.097174   -1.309335    2.342709
C      2.773641    0.772567   -2.021077
C      0.417776   -0.896354    1.198735
Cl     1.272842    1.658454   -1.794927
F      3.171498    2.166172   -3.935018
N     -2.245684    1.403071   -1.300770
O     -3.487138    2.870912    0.735737
O     -2.982685   -1.171376    2.486408
O      1.193476   -2.070756    4.620923
O      3.120443   -1.738801    3.334372
O      1.071541   -0.556332    0.110724
H     -3.571253    2.059719   -2.721675
H     -3.240117    3.299131   -1.515385
H     -4.326120    1.826687   -1.150864
H      6.177528   -0.829719   -2.586817
H      4.707440   -1.551192   -0.707589
H      5.461836    0.922516   -4.120775
H     -0.331665   -0.568181   -1.554184
H     -1.617634   -1.810823   -1.536496
H     -3.262623   -0.226844   -2.110295
H     -1.833322    0.370940   -3.105122
H     -1.426899   -1.886493    4.445180
H      4.161743   -1.019149    1.090577
H     -4.150463    0.925876    0.666795
H     -3.034374    1.393118    1.976399
H     -2.820380   -0.891807    0.227646
H     -1.114902    1.618769    0.431194
H     -4.457574    2.969089    0.948926
H     -3.441289   -1.431477    3.341018
H      0.678537   -2.322481    5.449895
