49

C     -4.524906    1.027823    0.128016
C      4.376741    1.409716    3.082935
C      2.556580    2.849218    2.696131
C      3.879505    0.515480    2.120965
C      2.060560    1.949182    1.730732
C     -1.021078    1.317454   -0.250779
C     -2.384625    1.993436    0.046819
C     -0.246273   -2.608488   -3.063500
C      3.135834   -1.072977   -0.113012
C      4.241806    3.488725    4.369201
C     -3.260548   -1.571024    0.031039
C      3.708647    2.579386    3.367539
C      2.715153    0.777853    1.435074
C     -1.639531    0.125563   -1.021258
C     -2.509798   -0.334837    0.120060
C     -1.074365   -1.671992   -2.540561
C      1.077380   -2.730457   -2.595391
C      2.759030   -1.945011   -1.105908
C      2.247247   -0.146356    0.368895
C     -0.663733   -0.794652   -1.526656
C      1.495281   -1.892494   -1.616640
C      0.626791   -0.920721   -1.078696
N      4.657136    4.225938    5.156959
N     -3.179746    0.852179    0.546824
O     -4.353900   -1.674219   -0.761927
O     -2.369323   -1.579805   -3.029281
O      1.859267   -3.691983   -3.162369
O      3.601343   -2.793451   -1.536543
O      1.065774   -0.143503   -0.150690
H     -4.642007    1.281816   -0.961874
H     -4.905527    1.960387    0.656694
H     -5.225342    0.246236    0.420778
H      5.287603    1.201679    3.618586
H      2.011514    3.775378    2.908427
H      4.435061   -0.390882    1.949342
H      1.162363    2.204854    1.211455
H     -0.714036    0.987083    0.756174
H     -0.354786    1.914832   -0.828452
H     -2.291518    2.798346    0.771657
H     -2.788022    2.274640   -0.935882
H     -0.525804   -3.298962   -3.846102
H      4.145434   -1.152999    0.248527
H     -2.546624   -2.393979   -0.290552
H     -3.495642   -1.899029    1.102231
H     -2.208158    0.611791   -1.838906
H     -1.723731   -0.507055    0.964141
H     -4.509207   -1.031279   -1.457933
H     -2.716766   -2.184018   -3.752191
H      2.768947   -3.938823   -2.979014
