54

C     -2.468978   -1.976334   -2.288950
C     -3.496844    2.899462    1.532583
C      0.282151    5.604319    0.656717
C      3.585613   -3.834596   -0.376971
C      4.814880   -3.795061   -0.988034
C      2.904937   -2.633109   -0.122057
C      5.348615   -2.590936   -1.334731
C     -0.742384   -1.878893    0.859157
C     -0.810825   -2.320854   -0.568735
C      3.196309    1.041694   -0.299771
C     -0.888426    3.073821    0.858204
C     -3.614988   -1.586934    0.144037
C      3.426551   -1.406012   -0.464259
C     -1.450603   -0.579222    0.831215
C      4.644022   -1.400271   -1.067936
C     -2.475855   -0.724068   -0.315536
C      2.494674    2.196417   -0.065344
C      2.635190   -0.205578   -0.205220
C     -1.421163    1.819471    0.945634
C      0.430960    3.194288    0.518503
C     -0.685841    0.645366    0.705079
C      1.168021    2.052041    0.278799
C      0.646728    0.772964    0.362268
F      5.231621   -0.256186   -1.470178
N     -1.644142   -1.362029   -1.296695
O     -4.381323   -0.913715    1.091272
O      3.033951    3.323373   -0.159788
O     -2.780448    1.717325    1.296648
O      1.030570    4.434293    0.412754
O      1.349591   -0.299573    0.131484
H     -2.840213   -2.973095   -2.013198
H     -3.366360   -1.333060   -2.489449
H     -1.958682   -2.073137   -3.273557
H     -3.037950    3.435222    2.390590
H     -3.480013    3.598209    0.673442
H     -4.572804    2.692532    1.730050
H     -0.683874    5.594410    0.078608
H      0.025958    5.700855    1.720218
H      0.829407    6.497799    0.264371
H      3.161842   -4.777743   -0.103108
H      5.361290   -4.696530   -1.196682
H      1.963353   -2.782997    0.365599
H      6.303024   -2.545106   -1.809940
H      0.206554   -1.890314    1.363060
H     -1.359201   -2.659732    1.425111
H      0.147494   -2.481975   -1.065499
H     -1.362648   -3.301546   -0.708248
H      4.232351    1.171543   -0.547135
H     -1.458735    3.970200    1.043859
H     -4.301667   -1.840144   -0.689683
H     -3.252260   -2.511456    0.640857
H     -2.077443   -0.507896    1.750182
H     -2.833798    0.234273   -0.684159
H     -5.008187   -1.531773    1.534563
