55

C     -1.759736   -4.603529   -0.312585
C     -4.543423   -0.156526    1.926529
C     -1.784182    4.322604    3.628564
C      5.627657    1.901254   -1.454605
C      4.735275   -0.107920   -2.235706
C      4.431990    2.200144   -0.778939
C      3.541011    0.169842   -1.572453
C      0.267259   -1.604691   -0.762533
C      0.128845   -3.073917   -0.303767
C      2.065062    2.709012    0.812806
C     -2.348215    1.569778    1.914831
C      7.078112    0.377318   -2.818907
C     -2.813332   -2.406977   -1.667642
C      5.807778    0.834885   -2.141322
C      3.375932    1.363052   -0.811512
C     -1.070688   -1.055314   -0.497053
C     -1.987595   -2.164837   -0.393746
C      0.945580    2.946509    1.474649
C      2.157030    1.554613   -0.100864
C     -2.209038    0.414237    1.048616
C     -1.254159    2.374886    2.007277
C     -1.193197    0.135821    0.399236
C     -0.134393    2.087925    1.316708
C     -0.041573    0.957839    0.457824
N      7.983223    0.034803   -3.309821
N     -1.215398   -3.329657   -0.140453
O     -3.647304   -3.483886   -1.434674
O      0.817291    3.953602    2.266634
O     -3.420253   -0.293296    1.185237
O     -1.317831    3.469966    2.813794
O      1.067982    0.834234   -0.138112
H     -1.055903   -5.338302    0.193624
H     -2.693857   -4.678075    0.302194
H     -1.912234   -4.989983   -1.333321
H     -4.309284    0.115734    2.987127
H     -5.111389   -1.125145    1.931959
H     -5.193887    0.621737    1.517013
H     -2.199180    5.265922    3.171781
H     -2.645845    3.975512    4.297255
H     -1.016214    4.743839    4.379272
H      6.440452    2.663788   -1.361211
H      4.882144   -0.997866   -2.804633
H      4.374275    3.129368   -0.231372
H      2.724166   -0.503992   -1.633612
H      1.119277   -1.164018   -0.249439
H      0.517105   -1.699177   -1.844489
H      0.678011   -3.763408   -0.982574
H      0.606928   -3.043661    0.734044
H      2.943526    3.311877    0.904875
H     -3.242580    1.741831    2.417000
H     -3.432688   -1.523636   -1.939386
H     -2.119210   -2.631398   -2.482296
H     -1.366103   -0.539201   -1.498563
H     -2.750989   -2.201447    0.410406
H     -4.526226   -3.302074   -1.891675
