45

C     -2.072932    1.424230   -1.681278
C      3.488200   -1.379292   -3.452828
C      2.717135   -1.122904   -2.394735
C     -0.773258   -1.664138   -0.398389
C     -1.132986   -0.835723   -1.630760
C      4.678904   -0.666838   -3.553520
C     -0.419135    1.318518    3.542956
C      3.221521    1.181494    0.500111
C     -3.595881   -1.184768   -0.351435
C     -1.404321   -0.980777    0.767095
C     -2.551756   -0.206340    0.080638
C     -1.092647    0.441118    2.746402
C      0.857421    1.753989    3.201756
C      2.654215    1.665510    1.667875
C      2.470362    0.293893   -0.248527
C      3.095143   -0.215433   -1.485411
C     -0.578785   -0.077071    1.561697
C      1.392077    1.257299    2.035580
C      0.681160    0.351569    1.225771
N     -1.848553    0.234063   -1.062532
O     -4.326278   -1.671085    0.723995
O     -2.351015    0.073485    3.182083
O      1.459944    2.632789    4.055018
O      3.326756    2.485325    2.376184
O      1.294149   -0.051329    0.144739
S      4.680072    0.390306   -2.092622
H     -2.913592    1.972841   -1.197604
H     -2.298723    1.432891   -2.765745
H     -1.180533    2.108350   -1.553949
H      3.217880   -2.127757   -4.243088
H      1.745053   -1.668228   -2.234574
H      0.277208   -1.861600   -0.264563
H     -1.288455   -2.687963   -0.510180
H     -0.299996   -0.579161   -2.266820
H     -1.847999   -1.424229   -2.280409
H      5.494259   -0.693432   -4.333441
H     -0.853803    1.711727    4.475329
H      4.209780    1.508094    0.224646
H     -3.111280   -2.066607   -0.813272
H     -4.313648   -0.720845   -1.089320
H     -1.898218   -1.734794    1.439527
H     -2.902306    0.642056    0.651688
H     -5.281623   -1.798315    0.496318
H     -2.909554   -0.567650    2.681951
H      2.286040    3.106732    4.123643
