48

C     -4.130680    0.659070   -1.782367
C      3.575587   -0.045690   -2.995619
C      4.785525    0.593611   -3.021403
C      2.861152   -0.086928   -1.817201
C      5.268353    1.180159   -1.886047
C     -0.813252    0.033227   -1.167009
C     -1.918382    1.119623   -1.202709
C     -1.279238   -0.263621    3.629442
C      2.973868    0.768416    1.797070
C     -3.065971   -1.783131   -1.627644
C      3.318310    0.502572   -0.625969
C     -1.377986   -0.851061   -0.055037
C      4.532276    1.120131   -0.733340
C     -2.808366   -0.871617   -0.425024
C     -1.722147   -0.575288    2.373696
C      0.029796    0.181417    3.866793
C      2.154926    0.691757    2.919318
C      2.482066    0.444165    0.570558
C     -0.927843   -0.476502    1.257320
C      0.852600    0.286783    2.772866
C      0.384866   -0.040020    1.480980
F      5.079366    1.739503    0.350221
N     -3.143292    0.504354   -0.773108
O     -2.738089   -3.103803   -1.361004
O     -3.034615   -1.010562    2.266854
O      0.417507    0.480771    5.119717
O      2.638185    0.999328    4.043470
O      1.230021    0.067051    0.501699
H     -3.711753    0.681995   -2.818230
H     -4.545918    1.708963   -1.641708
H     -5.024874    0.015759   -1.676841
H      3.215857   -0.502643   -3.911711
H      5.375106    0.643120   -3.938063
H      1.928729   -0.608370   -1.801411
H      6.237275    1.690384   -1.918911
H     -0.828959   -0.479929   -2.146624
H      0.123043    0.493616   -1.011060
H     -1.963007    1.564548   -2.196744
H     -1.670738    1.895284   -0.441555
H     -1.903779   -0.340411    4.516793
H      3.976778    1.084470    1.990026
H     -4.144874   -1.785185   -1.892824
H     -2.541142   -1.415874   -2.522974
H     -0.949146   -1.887516   -0.317614
H     -3.466212   -1.211641    0.344178
H     -3.317344   -3.512254   -0.674540
H     -3.632278   -1.093865    3.071240
H      1.218693    0.795834    5.512050
