54

C     -4.721825   -1.380690   -0.003071
C     -3.577481    2.645934   -0.611026
C      0.763134    5.495655   -1.499944
C      5.670432   -2.594803    1.043547
C      5.041452   -1.423285    0.639250
C      4.947641   -3.695554    1.410237
C     -1.356013   -1.190665    1.473763
C     -2.901029   -1.328854    1.622381
C      2.946030   -2.506572    0.987976
C      3.554080    0.957608   -0.105084
C     -0.626261    3.008309   -0.748406
C     -2.358678   -2.233750   -1.356105
C      3.683897   -1.390713    0.618536
C      3.577119   -3.670829    1.387837
C     -1.216905   -0.588684    0.123329
C     -2.431890   -0.890383   -0.644155
C      2.852400    2.098081   -0.453403
C      2.922198   -0.209234    0.253682
C     -1.235378    1.830684   -0.389347
C      0.741910    3.121120   -0.774784
C     -0.527554    0.676870   -0.033268
C      1.459949    2.004095   -0.425950
C      0.864970    0.796959   -0.058699
Cl     2.656595   -5.075204    1.828593
N     -3.444619   -0.887891    0.386285
O     -2.087258   -3.295257   -0.541975
O      3.375485    3.183848   -0.784748
O     -2.596298    1.710331   -0.350700
O      1.391383    4.283456   -1.137159
O      1.595238   -0.240531    0.262839
H     -4.893132   -2.426732    0.358821
H     -4.749687   -1.358240   -1.141784
H     -5.515338   -0.702060    0.407239
H     -4.398265    2.456911    0.160463
H     -3.266883    3.697583   -0.455810
H     -4.048665    2.597587   -1.601238
H      1.362082    5.910289   -2.369300
H     -0.304093    5.430550   -1.702671
H      0.952677    6.192946   -0.665705
H      6.735615   -2.602044    1.064976
H      5.667021   -0.591012    0.372887
H      5.451211   -4.630565    1.739131
H     -0.968268   -2.213356    1.555833
H     -0.950387   -0.601530    2.293805
H     -3.251957   -0.798277    2.534878
H     -3.174754   -2.402964    1.774474
H      1.844374   -2.484142    0.973785
H      4.628639    1.037033   -0.130284
H     -1.254920    3.851817   -1.005810
H     -1.444629   -2.134621   -2.035200
H     -3.238841   -2.415902   -1.984391
H     -0.417568   -1.342433   -0.392585
H     -2.607212   -0.158736   -1.443046
H     -1.119743   -3.522154   -0.428899
