54

C     -4.017025    2.232741   -0.596104
C     -3.271511   -2.986232   -1.296786
C      0.689495   -5.557108   -0.225709
C      5.515247    2.735220    1.329357
C      4.811666    1.534164    1.142063
C      4.943177    3.945273    1.060223
C     -0.547932    1.914860   -0.756713
C     -1.793297    2.801413   -1.013894
C      2.945646    2.804771    0.406845
C      3.372439   -0.861430    0.602204
C     -0.653623   -3.015918   -0.556309
C     -3.327298    0.158659    0.886944
C      3.535436    1.580253    0.683508
C      3.657073    3.995872    0.597676
C     -1.334292    0.619636   -0.642524
C     -2.215532    1.049154    0.497587
C      2.673331   -2.034748    0.388863
C      2.742909    0.353241    0.446981
C     -1.255541   -1.791962   -0.702994
C      0.648361   -3.118560   -0.193913
C     -0.566994   -0.580748   -0.487641
C      1.358562   -1.947833    0.024901
C      0.754713   -0.718122   -0.122448
Cl     2.879910    5.536486    0.238413
N     -2.711866    2.351421    0.024713
O     -4.017203    0.843099    1.939656
O      3.209910   -3.163029    0.519653
O     -2.581474   -1.784337   -1.079951
O      1.314385   -4.327002   -0.028785
O      1.481360    0.349073    0.096676
H     -4.828988    2.087562    0.135758
H     -4.185733    3.201635   -1.136431
H     -3.999852    1.449897   -1.390999
H     -2.740534   -3.690352   -1.980699
H     -4.273885   -2.790521   -1.790705
H     -3.473882   -3.530237   -0.328532
H      1.428394   -6.385228   -0.371116
H      0.121222   -5.822395    0.679631
H      0.062549   -5.488310   -1.144069
H      6.521081    2.630006    1.694250
H      5.282165    0.600464    1.365658
H      5.496754    4.846048    1.210781
H      0.182467    1.959354   -1.535884
H     -0.247116    2.285971    0.254860
H     -1.490757    3.841505   -0.933446
H     -2.123901    2.528196   -2.016680
H      1.945830    2.908815    0.034614
H      4.406767   -0.942611    0.882960
H     -1.199225   -3.956090   -0.721583
H     -2.968701   -0.749714    1.366704
H     -4.127054    0.024929    0.127679
H     -1.980482    0.583561   -1.552630
H     -1.628614    1.285814    1.411477
H     -4.418537    0.203398    2.555911
