57

C     -2.159976   -3.510325   -1.096783
C     -4.686696    2.417039   -0.050382
C     -1.133466    5.440205    2.072759
C      4.005116   -1.201186    1.411319
C      3.459429   -0.773346   -0.856055
C      5.217931   -1.773327    1.003361
C      4.635221   -1.318503   -1.289445
C     -2.319419   -1.512479    0.871532
C     -3.474255   -2.252579    0.301958
C      2.413424    1.410205    1.359009
C     -2.077355    2.860800    0.832570
C     -1.634628   -1.330846   -2.687066
C      3.126762   -0.701528    0.539613
C      5.529057   -1.823280   -0.342996
C     -1.791422   -0.714287   -0.352333
C     -2.573387   -1.126497   -1.468019
C      1.439360    2.390248    1.552794
C      1.994609    0.220277    0.757679
C     -2.418229    1.629183    0.260812
C     -0.809959    3.096208    1.265149
C     -1.483283    0.627217    0.119806
C      0.133470    2.108783    1.128303
C     -0.173515    0.902213    0.556822
C      6.836782   -2.334777   -0.840905
F      6.956985   -3.669005   -0.673437
F      7.867811   -1.725178   -0.094103
F      7.068254   -1.943047   -2.151235
N     -3.115240   -2.450904   -1.120357
O     -2.273237   -1.904046   -3.753321
O      1.703821    3.479786    2.073696
O     -3.685846    1.446954   -0.154912
O     -0.420223    4.279313    1.822892
O      0.772450    0.014157    0.401536
H     -1.612247   -3.515397   -0.111763
H     -2.765207   -4.475542   -1.089981
H     -1.438174   -3.580815   -1.895636
H     -5.151717    2.349798    0.991860
H     -4.354563    3.474637   -0.194607
H     -5.474186    2.276668   -0.815690
H     -0.370971    6.208111    2.444148
H     -1.907947    5.345517    2.853040
H     -1.659908    5.822019    1.175622
H      3.779421   -1.158519    2.458440
H      2.738419   -0.367578   -1.532579
H      5.919525   -2.175174    1.706252
H      4.900288   -1.392946   -2.315061
H     -1.506714   -2.048274    1.327803
H     -2.715569   -0.688480    1.587332
H     -4.440478   -1.737456    0.403446
H     -3.583185   -3.254150    0.820513
H      3.403505    1.602869    1.666687
H     -2.803127    3.639360    0.951797
H     -0.693560   -1.849000   -2.372909
H     -1.327180   -0.319074   -2.984516
H     -0.754622   -1.255060   -0.492465
H     -3.433253   -0.548983   -1.823624
H     -1.678900   -2.609981   -4.158369
