54

C     -3.347136   -3.131363   -0.256483
C     -4.116137    2.112242   -0.706635
C     -0.787349    5.510753    0.383915
C     -0.338113   -1.920216   -1.227286
C     -1.110101   -3.223598   -0.895355
C      3.619168   -1.807363   -0.771733
C      5.804389   -1.615421    0.832319
C      3.069652    1.635558    0.304811
C     -1.518161    2.758907   -0.200839
C     -2.695229   -0.881295    1.422384
C     -1.286565   -0.894569   -0.700842
C      3.770665   -0.678124    0.011870
C      4.871484   -0.597320    0.811821
C      5.687617   -2.755140    0.068666
C      4.558798   -2.804316   -0.730181
C     -1.699166   -1.586309    0.600428
C      2.061239    2.597481    0.314614
C      2.691860    0.345722    0.027422
C     -1.809453    1.457600   -0.467785
C     -0.237740    3.143709    0.059983
C     -0.823456    0.451611   -0.489829
C      0.771008    2.188827    0.047846
C      0.465718    0.867686   -0.225522
Cl     5.194655    0.713945    1.936409
Cl     6.882384   -4.032160    0.114847
F      4.412620   -3.923166   -1.502716
N     -2.006353   -2.899284    0.157127
O     -2.940351   -1.579677    2.639249
O      2.341590    3.789665    0.562336
O     -3.122645    1.109399   -0.731516
O      0.138018    4.447085    0.340682
O      1.435372    0.024263   -0.221363
H     -3.382471   -3.695286   -1.233012
H     -3.796795   -3.855942    0.489005
H     -3.967909   -2.251100   -0.420972
H     -4.089289    2.716024    0.221475
H     -5.140486    1.687427   -0.797861
H     -3.863346    2.796235   -1.558714
H     -1.421690    5.427723   -0.536437
H     -1.351322    5.417923    1.314848
H     -0.175434    6.457653    0.332885
H     -0.248126   -1.817366   -2.330315
H      0.609933   -2.037812   -0.745182
H     -1.629313   -3.564279   -1.824092
H     -0.402918   -4.040104   -0.623257
H      2.754479   -1.870198   -1.425666
H      6.695912   -1.564557    1.470873
H      4.081348    1.983345    0.485548
H     -2.279292    3.541528   -0.180595
H     -2.393272    0.135009    1.728237
H     -3.711929   -0.806205    0.981930
H     -2.179537   -0.913508   -1.344748
H     -0.757514   -1.660212    1.211222
H     -3.289309   -0.911427    3.276182
