21

C     -0.534256   -1.275430    0.805488
C     -0.026463    0.725932   -0.424959
C     -1.843151   -0.866919    0.950821
C     -1.334643    1.131075   -0.277994
C      0.370300   -0.483648    0.121181
C     -2.214071    0.329746    0.404444
C      1.789515   -0.922987   -0.038377
C      2.668355   -0.190957    0.887999
N     -3.555639    0.784354    0.533881
O      2.186274   -0.711932   -1.350228
O      2.473381   -0.253738    2.126797
O      3.703667    0.562324    0.397730
H     -0.166993   -2.223053    1.217520
H      0.657234    1.367640   -0.965694
H     -2.551602   -1.493781    1.490442
H     -1.643934    2.074684   -0.704091
H      1.845549   -2.017472    0.159252
H     -4.342772    0.110129    0.565825
H     -3.777987    1.793303    0.598991
H      2.208167    0.217072   -1.624163
H      4.089070    1.343660    0.927491
