44

C      2.598032    1.417453   -0.878844
C      1.692322    4.312403   -0.762697
C     -3.495557    2.570894    1.156223
C      2.359160   -0.219663    1.335937
C      1.965047   -2.317157    0.376926
C      3.514529   -0.704995    1.900837
C      3.115483   -2.801187    0.940634
C     -2.213794   -2.695453   -1.563083
C      1.163688    1.778276   -0.511683
C      0.836492    3.133638   -0.559999
C     -3.439167    1.239357    0.489143
C      1.573458   -0.996999    0.574401
C      3.927599   -2.004866    1.722079
C     -1.630537   -1.309244   -1.372977
C     -2.507231   -3.342219   -0.270863
C      0.145460    0.913335   -0.298777
C      0.394541   -0.553558   -0.113146
C     -2.623180   -0.510992   -0.639396
C     -1.114108    1.412960   -0.165308
Cl     5.410632   -2.629004    2.446669
N     -0.388523   -1.470909   -0.645943
N     -4.393296    0.297270    0.313195
N     -3.864665   -0.746330   -0.372590
N     -2.366092    0.734647   -0.094511
O     -2.282395   -2.770984    0.813307
O     -3.043544   -4.610126   -0.261476
S     -0.967814    3.225815   -0.311021
H      3.330205    1.858174   -0.204851
H      2.710794    0.396986   -1.216940
H      2.762701    2.001332   -1.851786
H      1.183142    5.181211   -0.309224
H      2.625120    4.140633   -0.168457
H      1.920374    4.442826   -1.829857
H     -3.417424    3.358588    0.351570
H     -4.509057    2.695704    1.569250
H     -2.687256    2.702944    1.885562
H      2.104057    0.818838    1.600589
H      1.342464   -2.955839   -0.231463
H      4.160687   -0.072419    2.522324
H      3.404100   -3.853002    0.768508
H     -1.496155   -3.366535   -2.100394
H     -3.119169   -2.662611   -2.208237
H     -1.472885   -0.869139   -2.384484
H     -3.208238   -5.170053    0.560854
