37

C     -3.400324    0.710748    0.829190
C     -3.203898   -0.200528   -1.340012
C      2.970515    1.251444    0.530069
C     -4.657111    1.147301    0.556224
C     -4.499112    0.242180   -1.638731
C      4.267115    1.537455    0.194388
C      3.110944   -0.852140   -0.523695
C     -2.627257    0.018216   -0.118055
C      2.335920    0.044668    0.185240
C     -5.219611    0.915029   -0.687715
C      4.984692    0.601328   -0.514084
C      4.411721   -0.597242   -0.876121
C     -1.276325   -0.421637    0.233366
C      0.972444   -0.135225    0.570394
C     -0.031167   -0.180386   -0.541686
C     -0.968436   -1.069424    1.341604
C      0.528003   -1.337556    1.320222
O     -6.512005    1.371692   -0.953294
O      6.300941    0.885627   -0.861956
O      5.135946   -1.538236   -1.588454
O      0.025456   -0.067964   -1.750662
O     -1.787600   -1.471997    2.381616
O      0.660061   -2.523425    0.611986
H     -2.960045    0.889741    1.783388
H     -2.637243   -0.736241   -2.096657
H      2.420872    1.993912    1.083738
H     -5.269756    1.695606    1.289659
H     -4.962850    0.074376   -2.598101
H      4.766560    2.457383    0.453503
H      2.610505   -1.779237   -0.781693
H      0.648944    0.745723    1.212115
H      0.913409   -1.432834    2.331837
H     -7.018289    1.875050   -0.215727
H      6.712493    1.772698   -0.598695
H      4.678970   -2.407459   -1.833293
H     -1.777542   -1.016918    3.288955
H      0.353059   -2.461728   -0.326429
