21

C      2.055379   -0.680567    0.674306
C     -2.811385   -0.472863    0.113964
C     -1.886701   -1.419080   -0.275711
C     -2.448626    0.853630    0.098380
C     -0.637836   -1.055719   -0.669267
C     -1.184867    1.241202   -0.298263
C      1.088709    0.661852   -1.115012
C      2.029017    0.693923    0.087990
C     -0.273252    0.263087   -0.686085
Br     3.798688    1.180705   -0.452738
H      1.058399   -0.894979    1.111625
H      2.787509   -0.790728    1.500158
H      2.282556   -1.399885   -0.138515
H     -3.785177   -0.833730    0.414578
H     -2.163018   -2.483876   -0.268248
H     -3.173946    1.612861    0.405405
H      0.072623   -1.824346   -0.972067
H     -0.903893    2.269841   -0.310231
H      1.050222    1.687685   -1.566512
H      1.425407   -0.063621   -1.869831
H      1.620190    1.454609    0.794514
