49

C      3.628295    4.098651    0.516016
C     -4.339091    2.946901    1.759048
C      4.241091    3.502631   -0.569248
C      2.582244    3.483315    1.147238
C     -4.376830    3.083904    0.385629
C     -3.578346    1.922914    2.290096
C      3.758432    2.263635   -0.992412
C      2.109388    2.252004    0.719598
C     -3.673088    2.220761   -0.437514
C     -2.884117    1.071756    1.473162
C      0.047085   -3.749067   -0.429815
C      2.202865   -3.069119    0.664411
C      2.704100    1.649582   -0.351582
C     -2.920844    1.207406    0.100308
C      0.804910   -2.666058    0.308980
C     -1.194306   -2.978941   -0.828552
C      0.769208   -1.562837   -0.735543
C     -0.720721   -1.578933   -1.099416
C      2.242625    0.357565   -0.836540
C     -2.183092    0.301891   -0.752174
N     -1.840828   -3.536499   -1.988265
O      2.130342   -4.195585    1.482132
O      2.789312   -0.200669   -1.824671
O     -2.241125    0.457099   -1.997033
O      1.187246   -0.330750   -0.250082
O     -1.424005   -0.721366   -0.199060
Cl     0.687319    0.000000    0.000000
H      4.031019    5.068815    0.821486
H     -4.897295    3.631268    2.416263
H      5.062234    3.970872   -1.075817
H      2.119197    3.963640    1.989708
H     -4.968470    3.880955   -0.037981
H     -3.557155    1.826717    3.362401
H      4.222041    1.778200   -1.839280
H      1.282484    1.765476    1.218503
H     -3.741496    2.378932   -1.517985
H     -2.286585    0.265886    1.914979
H     -0.173649   -4.622197    0.200953
H      0.578133   -4.026599   -1.376593
H      2.850235   -3.243544   -0.190536
H      2.618422   -2.253900    1.306840
H      0.203179   -2.340251    1.152125
H     -1.899014   -3.043932    0.011924
H      1.340491   -1.928084   -1.605049
H     -0.885119   -1.298321   -2.140582
H     -2.304311   -4.423724   -1.740958
H     -1.211700   -3.604060   -2.814727
H      1.796610   -3.976343    2.389617
H     -0.687319    0.000000    0.000000
