48

C      4.241542    0.867653    3.169305
C      4.063496    1.691140    0.802272
C     -3.576880    1.542598   -1.345940
C     -5.035254    1.900518   -1.181585
C      1.019974   -1.360045   -1.346913
C      4.344962   -0.693562    1.213521
C     -2.006803   -0.403304   -1.419893
C     -5.426575    0.005763    0.188858
C     -3.493398    0.025964   -1.328399
C      0.990817   -0.568117   -0.219829
C      3.324128   -1.057194    0.197238
C      2.185680   -1.998866   -1.706985
C     -3.978013   -0.434685    0.029966
C      3.321363   -1.842891   -0.936220
C      2.159258   -0.420876    0.554016
C     -0.205594    0.129447    0.211518
C      3.781323    0.583440    1.779764
Cl     2.279302   -3.022935   -3.137591
N      4.525158   -2.511736   -1.321215
N     -5.478680    1.456461    0.124276
N     -1.299640    0.112175   -0.338026
O     -3.891910   -1.820657    0.149722
O     -0.122480    0.923822    1.395959
O      2.374592    0.318205    1.722295
H      5.335118    0.882591    3.183354
H      3.794715    0.104849    3.841357
H      3.858045    1.863193    3.461667
H      3.388871    1.507316   -0.083120
H      3.809790    2.687970    1.170305
H      5.095806    1.629116    0.382634
H     -3.151758    1.972243   -2.272027
H     -3.009086    1.891224   -0.449158
H     -5.637885    1.397794   -1.961824
H     -5.183462    3.001375   -1.243496
H      0.168791   -1.508372   -1.969873
H      5.350824   -0.556765    0.785516
H      4.326643   -1.456048    2.025169
H     -1.631396   -0.130333   -2.438559
H     -2.078229   -1.532935   -1.394444
H     -5.818178   -0.346297    1.159565
H     -6.001503   -0.394056   -0.665368
H     -4.075910   -0.432916   -2.152750
H     -3.341414    0.082313    0.786273
H      5.060813   -2.265013   -2.182229
H      4.907134   -3.283234   -0.734771
H     -4.839757    1.816122    0.864577
H     -3.600096   -2.015219    1.079749
H     -0.824243    1.662763    1.551336
