28

C     -2.613332    2.246794   -0.429576
C      4.619009    0.365407    0.202372
C      0.402812    0.835842    0.037520
C      0.033464   -1.476101    0.186992
C      0.976633   -0.493172   -0.459827
C     -1.069752    0.641432   -0.156259
C     -1.283563   -0.761048    0.369539
C      2.356512   -0.603266    0.084249
N     -3.463339   -1.836818    0.062656
O      2.738675   -1.524577    0.834881
O     -3.806330   -1.726258    1.399228
O     -4.255443   -2.392071   -0.698114
O     -1.832739    1.586774    0.518748
O      3.269379    0.380686   -0.267527
O     -2.289861   -1.353119   -0.418869
H     -3.254169    3.022037    0.036911
H     -3.288880    1.535443   -0.940686
H     -1.942778    2.661572   -1.199422
H      4.996792    1.405847    0.272053
H      5.270865   -0.197585   -0.497108
H      4.657025   -0.047308    1.241796
H      0.676213    0.951044    1.088483
H      0.795051    1.664246   -0.595696
H      0.398860   -1.817843    1.183638
H     -0.119221   -2.352168   -0.488011
H      0.919780   -0.597653   -1.540979
H     -1.267383    0.648298   -1.251605
H     -1.624280   -0.766435    1.424613
