39

C     -3.443320   -1.304268    0.990601
C      4.799255    0.441285    1.620572
C      5.204438    1.069317    0.457951
C      3.583936   -0.210381    1.620946
C     -2.758561   -0.907920   -2.046802
C     -3.764249   -0.174538   -1.217126
C      4.420893    1.047145   -0.667863
C      2.770137   -0.245866    0.486690
C     -1.465856   -1.174278   -1.334035
C      2.380368    0.381066   -1.894281
C     -3.374291   -0.027620    0.226398
C      3.186955    0.384171   -0.663489
C     -2.012401    0.632374    0.277390
C     -1.521218    0.760570    1.645505
C      0.197969    0.572248   -0.765800
N     -1.078777    0.004597   -0.618257
O     -2.238488    1.289490    2.522921
O     -0.267227    0.306055    1.999335
O      0.586521    1.603159   -0.162497
O      1.084165   -0.055538   -1.640031
H     -2.479543   -1.599930    1.450844
H     -4.174582   -1.240135    1.811626
H     -3.713010   -2.114374    0.266502
H      5.426182    0.467717    2.496972
H      6.154281    1.593809    0.414532
H      3.228603   -0.716955    2.515473
H     -3.160992   -1.904009   -2.384963
H     -2.498405   -0.356032   -2.988542
H     -4.725211   -0.731107   -1.266641
H     -3.902407    0.832443   -1.684545
H      4.732813    1.543718   -1.599945
H      1.830749   -0.753762    0.489032
H     -0.721724   -1.450075   -2.138056
H     -1.514317   -2.078869   -0.692585
H      2.353090    1.375731   -2.385169
H      2.849666   -0.381658   -2.578899
H     -4.079481    0.699292    0.694362
H     -2.180142    1.681384   -0.107119
H      0.284182    0.741742    2.750164
