39

C     -4.132775   -1.190812    0.113944
C      5.134785    0.653683    0.989448
C      5.480651   -0.260667    0.030582
C      3.799778    0.775395    1.384216
C     -2.402527    2.174989   -0.179604
C     -3.558036    1.245471   -0.019501
C      4.522766   -1.063574   -0.550047
C      2.851793   -0.054304    0.775633
C     -1.289321    1.652010   -1.029678
C      2.160778   -1.832087   -0.799262
C     -3.156161   -0.150172   -0.359660
C      3.185969   -0.971281   -0.183544
C     -1.759424   -0.509492    0.082234
C     -1.564023   -0.358219    1.534300
C      0.454480   -0.129546   -0.904227
N     -0.846959    0.344169   -0.626606
O     -0.707134    0.420618    2.052011
O     -2.335443   -1.086301    2.432524
O      1.248488    0.629420   -1.528161
O      0.872491   -1.389278   -0.513007
H     -5.102825   -1.063305   -0.430462
H     -4.322062   -1.144606    1.199082
H     -3.722199   -2.186738   -0.156562
H      5.845117    1.310046    1.479101
H      6.507375   -0.347888   -0.266770
H      3.503398    1.490087    2.139102
H     -2.764189    3.124877   -0.670558
H     -2.044649    2.490855    0.832374
H     -4.015192    1.301978    0.990830
H     -4.383592    1.544010   -0.728886
H      4.851957   -1.780530   -1.313924
H      1.844343    0.054438    1.094181
H     -0.428327    2.348868   -0.919251
H     -1.599013    1.680009   -2.094727
H      2.330679   -1.762039   -1.914495
H      2.322171   -2.904051   -0.563368
H     -3.147643   -0.221301   -1.486903
H     -1.613676   -1.584924   -0.164501
H     -2.021848   -1.249811    3.401530
