136

C     -1.551817   -2.928286   -0.563880
C     -2.653740    3.774069   -1.293645
C      3.194482    1.589089   -0.049923
C      5.803502   -2.038941   -1.434257
C      3.824664    0.016145   -3.218844
C      3.901199   -1.364420    0.590608
C      0.465910    0.862905   -0.680446
C      2.957017    0.883242   -2.346694
C      5.241532   -0.036943   -2.719635
C      2.641026   -1.232991    1.341204
C     -0.888890    0.139687   -0.595116
C      0.836210   -2.467741    0.128085
C     -8.183081   -4.950857    1.057413
C     10.690220    3.416460   -1.243417
C     -3.445818   -0.801678    5.204265
C      0.311144   -0.611868    1.436240
C     -0.609358   -2.167310   -0.019785
C     -3.809595    4.309937   -0.459845
C     -7.913022   -3.546910    0.552537
C     10.256045    2.336978   -0.276218
C     -3.725282   -0.310822    3.777301
C      3.903466   -0.720840   -0.775393
C      1.538204   -0.187641   -0.660007
C     -5.066274    4.105014   -1.242640
C     -8.386059   -3.393613   -0.884574
C     11.383443    1.317499   -0.229922
C     -4.365886   -1.393390    2.956912
C     -6.302706    4.019523   -0.399545
C     -8.091630   -1.941435   -1.275813
C     10.969623    0.258913    0.760666
C     -6.073571    2.993465    0.692557
C     -6.599384   -1.723627   -1.117408
C      9.608133   -0.299634    0.494432
C     -4.928999   -0.699174    1.704605
C     -3.996282    0.403380    1.296177
C     -4.620103    2.534677    0.676015
C     -6.263973   -2.013213    0.329768
C      8.629383    0.687988   -0.058838
C     -2.598654    0.208737    1.821015
C      6.274785    0.090751   -0.474755
C      2.939639    0.387635   -0.883151
C      5.274823   -0.566213   -1.305250
C      1.410120   -1.090874    0.503038
C     -0.905244   -0.792599    0.561478
O     -7.539842   -5.867824    0.210317
O      9.701316    4.338156   -1.488342
O     -2.979274    0.294614    5.941237
O     -5.253489    5.178781   -2.140702
O     -9.716981   -3.705178   -1.006517
O     12.562338    1.912963    0.243527
O     -5.412151   -1.940051    3.659152
O     -7.326707    3.521317   -1.206104
O     -8.434412   -1.748621   -2.594429
O     11.938930   -0.740522    0.760184
O     -6.950001    1.937464    0.620188
O     -6.308242   -0.415436   -1.442215
O      9.134482   -0.824560    1.697338
O      5.999469    0.691479    0.567571
O     -3.852448    3.696002    0.791832
O     -6.551785   -3.357382    0.576031
O      9.165290    1.679978   -0.831438
O     -2.572910    0.180900    3.221557
O     -4.988642   -1.668611    0.698461
O     -4.438549    1.657101    1.716517
O      7.613526    0.065397   -0.834796
O     -2.064877   -0.917530    1.259630
H     -1.300687   -3.902281   -0.969089
H     -2.588304   -2.624752   -0.629451
H     -2.895637    2.729807   -1.571871
H     -1.708336    3.783806   -0.744496
H     -2.633888    4.344279   -2.245076
H      4.031812    2.175181   -0.526770
H      2.344924    2.307921   -0.070657
H      3.441209    1.442295    0.992710
H      5.997518   -2.420507   -0.416381
H      6.765319   -1.950595   -1.950889
H      5.084708   -2.607900   -2.019076
H      3.349566   -0.952236   -3.378395
H      3.862849    0.522817   -4.209072
H      4.730142   -1.023013    1.241801
H      4.158106   -2.461579    0.415029
H      0.436515    1.438772   -1.597267
H      0.484009    1.564205    0.161263
H      3.361827    1.908857   -2.393478
H      1.957773    0.902896   -2.786022
H      5.867692   -0.645556   -3.378604
H      5.646424    1.004118   -2.699971
H      2.501183   -2.208920    1.906851
H      2.639139   -0.475629    2.153772
H     -1.018941   -0.372059   -1.571645
H     -1.696713    0.913896   -0.557496
H      1.029362   -3.153521    0.972919
H      1.217032   -2.830636   -0.822606
H     -7.712196   -5.025338    2.048921
H     -9.263495   -5.101146    1.074781
H     11.013157    2.998396   -2.210143
H     11.600374    3.944408   -0.842136
H     -2.669525   -1.584193    5.218088
H     -4.417931   -1.170096    5.611651
H      0.463412    0.390408    1.819313
H      0.264580   -1.381222    2.259972
H     -3.642040    5.388262   -0.312269
H     -8.474081   -2.845364    1.186180
H     10.047971    2.756830    0.708892
H     -4.456766    0.508757    3.887360
H      3.446352   -1.550500   -1.443100
H      1.363223   -0.807888   -1.590006
H     -5.031557    3.202087   -1.884760
H     -7.803480   -4.020049   -1.576712
H     11.532443    0.930639   -1.241169
H     -3.681345   -2.216705    2.688270
H     -6.604644    5.003516   -0.022247
H     -8.690338   -1.259534   -0.659922
H     11.017926    0.726068    1.774975
H     -6.240113    3.516357    1.654537
H     -6.071259   -2.466825   -1.726126
H      9.718327   -1.127307   -0.249067
H     -5.934424   -0.351701    2.021535
H     -3.913044    0.464167    0.183760
H     -4.379338    2.094979   -0.314453
H     -6.975316   -1.419898    0.938057
H      8.117767    1.152385    0.811973
H     -1.997401    1.101938    1.551574
H     -7.113670   -6.585950    0.743830
H      9.799308    4.780763   -2.366510
H     -1.992827    0.320681    5.921831
H     -6.208297    5.316851   -2.342962
H    -10.283242   -2.937860   -0.761289
H     13.216357    1.191867    0.428215
H     -5.812516   -2.697526    3.151907
H     -8.170077    3.803710   -0.796716
H     -8.318330   -2.598561   -3.068280
H     12.051216   -1.180508   -0.101699
H     -7.462816    1.876269   -0.200700
H     -6.452605   -0.286443   -2.411793
H      8.255416   -1.287908    1.580547
