53

C     -2.434748    0.796447    1.717562
C      2.687918    2.284405    2.615051
C      1.819388   -3.125800    1.158218
C     -5.991608    1.496867   -1.714354
C      5.934803    0.876850   -2.954326
C     -2.434272   -0.630191    1.313162
C      2.510528    0.831810    2.894955
C      0.627655   -2.661147    0.347421
C     -3.851699    0.475932   -0.982097
C     -2.862647   -0.380195   -1.135789
C      3.694728    0.587890    0.070865
C     -0.598229   -0.589241   -0.389113
C      0.757882   -0.584595    1.691144
C     -4.636306    0.981170   -2.182189
C     -2.007058   -0.959944   -0.062554
C      1.908537    0.101962    1.728971
C      2.530554    0.022574    0.417986
C      4.190781    0.421457   -1.278993
C      0.517267   -1.153141    0.361937
O     -4.878205   -0.096115   -3.020363
O      3.528489   -0.247294   -2.105864
O      5.377007    0.985746   -1.667381
O      1.697460   -0.733339   -0.370279
H     -1.669959    0.880926    2.555097
H     -3.379141    1.120134    2.229129
H     -2.070626    1.520420    0.969992
H      2.434149    2.574096    1.574985
H      2.030104    2.873639    3.280620
H      3.744096    2.549687    2.866613
H      2.716793   -3.284504    0.548204
H      1.611779   -4.106662    1.665284
H      2.089232   -2.425656    1.965889
H     -6.583899    0.705475   -1.225627
H     -6.542355    1.776632   -2.637338
H     -5.841159    2.388539   -1.071281
H      7.036460    0.995966   -2.877433
H      5.581168    1.720141   -3.614847
H      5.727905   -0.075093   -3.454967
H     -3.544438   -0.943238    1.356076
H     -1.972404   -1.288970    2.049498
H      3.447747    0.324018    3.210150
H      1.809508    0.711925    3.739248
H      0.793918   -3.020108   -0.693449
H     -0.251639   -3.174460    0.726122
H     -4.108651    0.807649    0.002701
H     -2.690604   -0.667876   -2.197396
H      4.216839    1.151602    0.830939
H     -0.533937    0.532845   -0.308491
H     -0.450537   -0.790478   -1.478539
H      0.168201   -0.641362    2.613321
H     -4.111035    1.791180   -2.688219
H     -2.090540   -2.070141   -0.178575
H     -5.655199   -0.638432   -2.730221
