50

C      0.454985    3.279583   -0.799635
C     -3.028333   -2.484528   -1.561565
C      3.238461    1.914792   -1.950233
C      5.063446   -2.050972    0.389149
C      4.203866   -3.038263    0.818582
C      4.518442   -0.826791    0.054216
C      2.839576   -2.796448    0.906516
C     -3.906462    3.542688    0.009854
C     -2.561897    3.565759   -0.286314
C     -3.691740    1.303050    0.804240
C     -4.481783    2.430105    0.550362
C      3.164924   -0.581762    0.139782
C     -2.360236    1.342575    0.504233
C     -1.767138    2.456773   -0.040291
C      2.298071   -1.552318    0.564596
C     -1.344821    0.387960    0.650136
C     -0.204740    1.020907    0.167889
C      1.034954    0.219786    0.143529
C      2.341829    0.534560   -0.125160
C     -2.484807   -1.804765    0.823631
C     -0.667593   -2.420950   -0.454278
C     -1.340397   -0.966638    1.257145
C     -0.182215   -1.776394    0.825010
Cl    -6.190889    2.387369    0.931988
N     -0.445537    2.262659   -0.246404
N     -2.076666   -2.259421   -0.485226
N      1.037908   -1.057618    0.556358
O     -3.536715   -2.059619    1.434360
O     -0.009269   -2.995085   -1.343593
O     -1.380419   -0.832158    2.671985
O      0.028245   -2.787042    1.783985
O      2.935162    1.686849   -0.580074
H      1.241417    3.589134   -0.108697
H      0.732325    3.053866   -1.831216
H     -0.163579    4.231621   -0.907406
H     -2.764521   -3.435747   -2.109921
H     -4.050497   -2.682408   -1.158521
H     -3.104047   -1.650372   -2.261416
H      4.244904    1.491903   -2.143401
H      3.335602    3.015279   -2.065832
H      2.506731    1.470891   -2.625353
H      6.113542   -2.286296    0.337608
H      4.575161   -4.029612    1.098414
H      5.184361   -0.045215   -0.283952
H      2.163288   -3.569933    1.243313
H     -4.540233    4.402945   -0.177426
H     -2.165921    4.462381   -0.707496
H     -4.136581    0.441850    1.230240
H     -0.440655   -0.832963    2.958297
H     -0.229505   -3.671965    1.397990
