50

C     -2.115492    2.040440   -0.444453
C      0.442923    2.425358    0.862289
C     -2.657473   -2.175754    0.019630
C      2.064951   -1.532398   -1.363426
C      3.314690   -1.321114   -0.827444
C     -0.550437    0.372044    1.707973
C     -1.288054   -0.890759    1.438178
C     -0.320692   -1.071216   -1.579988
C      2.420406    0.399149    0.535321
C     -0.988757    1.072018   -0.655960
C      1.002821   -0.768813   -0.938870
C      3.490486   -0.351104    0.125358
C      1.154164    0.205788    0.011593
C     -1.452182   -0.330885   -0.917790
C     -0.007033    1.039574    0.474850
N     -1.994318   -0.953088    0.222004
O      4.742353   -0.139933    0.661807
C     -0.430572   -0.224727    0.451384
C      0.463583    0.123239   -0.462335
C     -1.857175   -0.284190    0.171675
C      1.889524    0.187171   -0.198491
O     -2.339503   -0.009831   -0.954931
O     -2.749672   -0.655330    1.167075
O      2.383881   -0.083210    0.918452
O      2.712938    0.565116   -1.241555
H     -3.009878    1.707077   -1.028137
H     -2.417899    2.145536    0.618051
H     -1.858179    3.062372   -0.800913
H     -0.495647    3.032495    0.984290
H      1.036662    2.914252    0.066465
H      0.945532    2.435612    1.842154
H     -2.095960   -3.012790    0.514823
H     -2.786094   -2.474022   -1.040219
H     -3.643822   -2.147931    0.528008
H      1.927315   -2.310870   -2.127157
H      4.131794   -1.948595   -1.191441
H     -1.189968    1.123598    2.236591
H      0.309392    0.188238    2.389782
H     -0.575614   -1.745138    1.488708
H     -2.006544   -1.052875    2.273311
H     -0.488430   -2.148794   -1.676451
H     -0.237788   -0.642374   -2.622248
H      2.562790    1.162699    1.286403
H     -0.429800    1.405337   -1.566293
H     -2.273525   -0.259039   -1.687107
H      5.337307    0.545906    0.180308
H     -0.072656   -0.469966    1.433408
H      0.049747    0.359264   -1.431253
H     -3.716888   -0.355001    1.159559
H      3.666794    0.847466   -1.012987
