29

C      1.801770    0.878491   -0.305916
C     -2.773372   -0.661574    0.536872
C     -2.390271   -0.573599   -0.951309
C      3.161791    0.992367   -0.589731
C     -0.587134    0.004052    1.494897
C      1.999683   -1.461056   -0.385221
C      1.202688   -0.353065   -0.199954
C     -2.015958    0.439981    1.210487
C     -0.206912   -0.502295    0.093682
C     -1.126805    0.284061   -0.781404
C      3.921760   -0.145710   -0.767707
Cl     5.632531   -0.045452   -1.125416
N      3.328731   -1.332181   -0.662289
N     -1.729675    1.328517    0.067409
Cl     0.683639    0.000000    0.000000
H      1.273443    1.810894   -0.179905
H     -2.412043   -1.648455    0.928857
H     -3.850801   -0.625004    0.646880
H     -3.162421   -0.054703   -1.529642
H     -2.084451   -1.544222   -1.350605
H      3.659223    1.948871   -0.678770
H      0.037802    0.896916    1.751234
H     -0.546342   -0.785456    2.240690
H      1.639040   -2.480627   -0.325927
H     -2.505745    0.932867    2.023284
H     -0.493251   -1.595814    0.136562
H     -0.728532    0.652410   -1.702028
H     -1.044752    2.006381    0.404972
H     -0.683639    0.000000    0.000000
