29

C     -2.245742   -0.399349    1.102116
C      2.804885    0.689175    0.630311
C      2.348083   -0.741351    0.924422
C     -3.563869   -0.669501    0.722372
C      0.537126    1.466809    0.024723
C     -1.664976   -0.229357   -1.164911
C     -1.269221   -0.173486    0.154685
C      1.902588    1.155839   -0.494942
C      0.099977    0.106511    0.580997
C      1.124741   -0.835313    0.022056
C     -3.922335   -0.717271   -0.608320
Cl    -5.581154   -1.057075   -1.093821
N     -2.952493   -0.493695   -1.513728
N      1.642203   -0.132215   -1.164110
Cl     0.683667    0.000000    0.000000
H     -1.975795   -0.364529    2.159473
H      3.859663    0.711852    0.299085
H      2.672800    1.346244    1.500177
H      2.044067   -0.802046    1.997339
H      3.110617   -1.479093    0.665813
H     -4.332836   -0.847119    1.456640
H      0.511312    2.243755    0.806728
H     -0.116753    1.689941   -0.835070
H     -0.893657   -0.051062   -1.908363
H      2.343543    1.889511   -1.148791
H      0.179374    0.100396    1.671420
H      0.794001   -1.836420   -0.179129
H      2.543851   -0.571151   -1.458427
H     -0.683667    0.000000    0.000000
