50

C     -1.502049   -2.147194   -1.152947
C      0.570898   -2.374597    0.830044
C     -2.914863    1.754784   -0.539851
C      2.194289    1.941856   -0.681292
C      3.380093    1.659860   -0.043321
C     -0.836147   -0.417141    1.444852
C     -2.150488    0.049110    0.956367
C     -0.153676    1.423902   -1.234399
C      2.432203   -0.301253    0.876785
C     -0.536620   -1.053772   -0.957226
C      1.093101    1.066663   -0.529988
C      3.516968    0.532132    0.746650
C      1.221628   -0.051208    0.250148
C     -1.122234    0.303367   -1.219465
C      0.084483   -0.985483    0.420190
N     -2.249220    0.491777   -0.365660
O      4.736052    0.264084    1.388287
C     -0.408202    0.241048    0.070952
C      0.511167   -0.688437   -0.132999
C     -1.814753   -0.122358    0.144503
C      1.913109   -0.294442   -0.202061
O     -2.156605   -1.320954    0.014062
O     -2.796911    0.811307    0.354479
O      2.806442   -1.155236   -0.394567
O      2.297254    1.030121   -0.058494
H     -2.030722   -2.490378   -0.235084
H     -2.321572   -1.792948   -1.844659
H     -1.101461   -3.059017   -1.630318
H     -0.267747   -3.079009    0.605170
H      0.700981   -2.424469    1.931982
H      1.496355   -2.650792    0.287222
H     -2.822056    2.414831    0.357040
H     -4.012435    1.555489   -0.648336
H     -2.553898    2.284185   -1.431817
H      2.094512    2.828307   -1.299345
H      4.248824    2.319179   -0.142291
H     -1.031395   -1.215839    2.221921
H     -0.323626    0.396870    2.039067
H     -2.485184    0.888453    1.638013
H     -2.942545   -0.739881    1.127026
H     -0.628376    2.312665   -0.758703
H      0.125539    1.761612   -2.258776
H      2.479065   -1.191622    1.477123
H      0.313702   -1.176933   -1.686428
H     -1.544089    0.240395   -2.269885
H      4.841711    0.662015    2.331905
H     -0.091444    1.280996    0.182364
H      0.238107   -1.727974   -0.248162
H     -3.727454    0.740361   -0.035344
H      3.229290    1.205568    0.305266
