30

C     -2.296030    0.136934    0.679550
C     -1.400917    0.854600    1.652777
C     -0.362178    1.667461   -1.503480
C      1.941205    0.024062    0.025343
C     -0.269045    0.538210   -0.839580
C     -1.588423   -1.105913    0.244142
C      1.742814   -1.072097   -0.972151
C     -0.077294    0.124367    1.505324
C      0.334440    2.682147   -0.727454
C     -0.741457   -0.878257   -1.009496
C      0.403585   -1.789502   -0.708007
C      0.634637    0.725522    0.342601
N     -0.528490   -1.233885    1.230290
O      2.732238   -2.032866   -0.756607
O      0.489885    3.891543   -1.008850
O      0.832346    2.102563    0.430601
O      0.399140   -2.013033    0.672437
H     -3.212289   -0.180691    1.257394
H     -2.638695    0.769119   -0.155438
H     -1.758116    0.824466    2.688940
H     -1.266794    1.931738    1.349612
H     -0.869817    1.774970   -2.443973
H      2.645983    0.786080   -0.380364
H      2.395862   -0.324575    0.977395
H     -2.229130   -1.976700    0.177668
H      1.801580   -0.715670   -2.014851
H      0.498968    0.099047    2.441718
H     -1.269715   -1.054267   -1.929990
H      0.401251   -2.705169   -1.300927
H      3.254459   -1.850204    0.075374
