34

C     -4.453527    1.296461   -0.343875
C      4.407829    0.680425   -0.383122
C     -4.570528   -0.082661   -0.410742
C      3.812936    1.913306   -0.521363
C     -3.268471    1.950017   -0.127966
C      3.627639   -0.390627   -0.001918
C     -3.425816   -0.832828   -0.249824
C      2.471460    2.026632   -0.275253
C      0.875219   -2.279230   -0.373036
C     -2.154590    1.164962    0.026555
C      2.275602   -0.294114    0.250075
C     -2.219149   -0.227972   -0.031732
C      1.692544    0.956155    0.105351
C     -0.635199   -2.292645   -0.334542
C     -0.832677    1.738314    0.248847
C      0.021145   -0.460049    0.959229
C      1.239064   -1.280605    0.676223
N     -1.048584   -1.019869    0.135230
N      0.306020    0.866809    0.392884
O     -1.421986   -3.208858   -0.641797
O     -0.624988    2.963668    0.322342
O      1.673969   -1.985722    1.800440
H     -5.352845    1.902385   -0.469552
H      5.473143    0.583209   -0.577251
H     -5.535201   -0.572069   -0.585194
H      4.420230    2.771444   -0.823007
H     -3.194848    3.023327   -0.078872
H      4.135838   -1.360787    0.098794
H     -3.449699   -1.932044   -0.294519
H      2.031694    3.025417   -0.395742
H      1.272283   -3.291790   -0.162114
H      1.203614   -1.987966   -1.392487
H     -0.259841   -0.415250    2.010229
H      1.507724   -2.947447    1.748872
