39

C      3.409554   -0.552149    1.698854
C     -2.615419   -1.450434    0.517241
C      2.003722   -2.965809   -1.557286
C     -0.593384    3.721806    0.933485
C      3.331482    0.358252    0.463158
C     -2.122363    0.375461   -1.114837
C      1.108476    1.458184    0.333700
C      0.097526   -0.684652   -1.019670
C     -2.995389   -0.058427    0.053086
C      1.902703    0.367428    0.037515
C     -0.693019    0.401746   -0.724422
C      1.423555   -0.731849   -0.643481
C     -0.226626    1.512222   -0.040807
N     -4.373305   -0.005286   -0.384213
O      2.283824   -1.779572   -0.896399
O     -1.057121    2.588603    0.236119
Cl     0.691264    0.000000    0.000000
H      4.327348   -0.307356    2.310696
H      2.548360   -0.360371    2.388504
H      3.419827   -1.621706    1.427221
H     -2.485896   -2.085752   -0.401345
H     -1.710983   -1.440106    1.137156
H     -3.451405   -1.862628    1.112682
H      2.866204   -3.225584   -2.227434
H      1.883883   -3.800651   -0.829364
H      1.122818   -2.855169   -2.218080
H      0.129212    3.480290    1.746358
H     -1.445262    4.330804    1.313477
H     -0.039865    4.389412    0.223299
H      3.716033    1.347003    0.714641
H      3.990670   -0.105483   -0.311906
H     -2.224403   -0.288164   -1.986862
H     -2.493557    1.373950   -1.405275
H      1.528963    2.307947    0.878076
H     -0.285478   -1.551442   -1.558030
H     -2.886385    0.620707    0.909516
H     -4.978400   -0.564913    0.258273
H     -4.415898   -0.336310   -1.373647
H     -0.691264    0.000000    0.000000
