88

C     -1.513791    2.160647   -1.352839
C      0.497132    2.493799    0.660231
C     -3.052637   -1.671283   -0.585618
C      2.132835   -1.900920   -0.458575
C      3.268589   -1.696683    0.298065
C     -0.959686    0.673988    1.355525
C     -1.554873   -0.696035    1.031747
C     -0.081896   -1.340466   -1.321026
C      2.288517    0.336296    1.056877
C     -0.566386    1.038297   -1.088383
C      1.072089   -1.000067   -0.467687
C      3.352286   -0.559485    1.070902
C      1.162493    0.125552    0.301436
C     -1.181728   -0.328687   -1.266799
C      0.038545    1.089066    0.297130
N     -2.168215   -0.597951   -0.256085
O      4.489380   -0.322990    1.848897
C     -1.972297   -1.647867    1.227823
C      0.508296   -2.506366   -0.056596
C     -2.958532    1.857165   -0.506280
C      2.167029    1.958334    0.710745
C      3.464368    1.537630    0.462200
C     -0.518231   -0.782925   -1.443420
C     -1.782596   -0.017349   -1.451768
C     -0.258903    1.689696    0.829076
C      2.570520   -0.568992   -0.153615
C     -0.812920   -0.741512    1.051983
C      1.073003    1.118170    0.527894
C      3.680593    0.248577    0.020452
C      1.296956   -0.158568    0.089524
C     -1.350000    0.668793    0.835287
C      0.089188   -1.040953   -0.097474
N     -2.136275    0.708132   -0.314081
O      4.972627   -0.235857   -0.248572
C      0.398397   -0.096324   -0.690474
C     -0.396457   -0.052974    0.367379
C      1.825766    0.191848   -0.594378
C     -1.828666   -0.351305    0.220805
O      2.521397    0.132336   -1.637850
O      2.459823    0.526413    0.574635
O     -2.607860   -0.321797    1.186647
O     -2.334867   -0.675842   -1.025232
H     -0.918575    3.078045   -1.614475
H     -2.138345    2.443981   -0.482574
H     -2.115826    1.916800   -2.251706
H     -0.373960    3.163491    0.538048
H      0.754316    2.476904    1.736004
H      1.361756    2.818122    0.045927
H     -3.714632   -1.850095    0.286393
H     -2.536766   -2.632812   -0.781043
H     -3.716579   -1.354774   -1.416045
H      2.081588   -2.814591   -1.070687
H      4.097973   -2.392638    0.310566
H     -1.809958    1.381962    1.371332
H     -0.429020    0.638566    2.321616
H     -0.758904   -1.434557    1.121409
H     -2.317153   -0.877701    1.820531
H     -0.461299   -2.381372   -1.106756
H      0.272256   -1.387282   -2.379509
H      2.385768    1.216242    1.672797
H      0.281056    1.116311   -1.807461
H     -1.742209   -0.281624   -2.242015
H      4.575857   -0.646056    2.803850
H     -2.806420   -1.444772    0.526646
H     -1.744539   -2.723859    1.237700
H     -2.408854   -1.438150    2.249565
H     -0.440168   -3.078244   -0.283147
H      1.162286   -2.738838   -0.939396
H      0.933692   -2.806198    0.898911
H     -4.003599    1.571508   -0.188202
H     -2.977389    2.137943   -1.562190
H     -2.655335    2.677696    0.154650
H      2.024470    2.966591    1.054028
H      4.313143    2.219390    0.613902
H     -0.703287   -1.749485   -2.003018
H      0.273320   -0.283045   -2.077819
H     -1.732306    0.704573   -2.324182
H     -2.660090   -0.673870   -1.738404
H     -0.216818    2.247492    1.790120
H     -0.465102    2.446661    0.042827
H      2.760416   -1.560808   -0.495396
H     -0.172933   -0.756629    1.979869
H     -1.996010    0.872789    1.732566
H      5.482696   -0.676852    0.502375
H     -0.055881   -0.355709   -1.635321
H      0.051685    0.203202    1.301143
H      3.251354    1.189612    0.606184
H     -3.284691   -0.389460   -1.310897
