53

C     -1.790081    0.517131    1.097271
C      3.182030   -0.163860    0.575302
C      2.606361   -1.215109   -0.103911
C      2.464910    1.003445    0.705373
C      1.351165   -1.163417   -0.661117
C      1.193068    1.098059    0.157421
C     -0.705256    0.107240   -1.107158
C     -1.790230   -0.331790   -0.140195
C      0.637676    0.014461   -0.525198
N     -3.072006   -0.317423   -0.815207
C     -3.105033   -0.461855   -0.191646
C      3.331593    0.506965   -0.030792
C      2.723832    0.017081   -1.167994
C      2.588543    0.505813    1.131664
C      1.421607   -0.459172   -1.155932
C      1.288389    0.029907    1.141949
C     -0.720518   -0.966510    0.042832
C     -1.719245    0.133480   -0.246083
C      0.675930   -0.460897    0.008200
N     -1.644251    1.212660    0.707382
O      1.438605   -0.234272   -0.288887
O     -1.328258   -0.527402   -0.343623
O     -0.201432    1.061580    1.322395
O     -0.142340    1.631506   -1.043874
S     -0.040750    0.493350   -0.041319
H     -1.624772    1.594343    0.827897
H     -1.008913    0.230117    1.820157
H     -2.757117    0.446006    1.639948
H     -3.850979    0.127457   -0.753073
H     -3.044109   -1.516038   -0.549335
H     -3.390961   -0.536756    0.893103
H      4.183745   -0.223363    1.012792
H      3.156228   -2.143145   -0.216657
H      2.918126    1.831858    1.240416
H      0.885979   -1.979044   -1.196631
H      0.668500    2.034893    0.284892
H     -0.902742    1.203888   -1.290636
H     -0.785957   -0.376750   -2.079889
H     -1.610419   -1.379858    0.176323
H     -3.517984   -1.241161   -0.874269
H     -3.682311    0.453481   -0.526923
H      4.355641    0.875524   -0.065735
H      3.278251    0.003914   -2.095246
H      3.056524    0.886008    2.020026
H      0.968283   -0.837926   -2.061165
H      0.701084    0.030349    2.066519
H     -0.877061   -1.759944   -0.698693
H     -0.965336   -1.410926    1.037008
H     -1.554758    0.518818   -1.281738
H     -2.595155    1.644519    0.767057
H     -0.922269    1.917525    0.481691
H      1.570722   -1.053748    0.251279
H     -1.296547   -1.371015    0.144028
