30

C      2.271693    0.689235   -0.661801
C      1.788950    1.259133    0.632718
C     -1.018641    1.714577   -1.102467
C     -1.503928   -0.555168    1.148689
C     -0.434389    0.622538   -0.684421
C      1.634574   -0.643915   -0.789866
C     -1.730455   -1.468816   -0.024333
C      0.881286    0.205996    1.238102
C     -1.407158    2.479736    0.072944
C      0.209019   -0.580524   -1.326628
C     -0.357575   -1.786230   -0.616472
C     -0.522502    0.550937    0.779758
N      1.340293   -1.002691    0.591746
O     -2.193987   -2.689611    0.493912
O     -2.011477    3.601994    0.036602
O     -1.005529    1.773615    1.188055
O      0.456586   -1.984808    0.511158
H      3.373270    0.541399   -0.580308
H      2.123077    1.362698   -1.529832
H      2.603462    1.512888    1.341760
H      1.221492    2.192960    0.393350
H     -1.182973    1.996430   -2.162482
H     -1.095469   -1.092745    2.008978
H     -2.477252   -0.076401    1.380951
H      2.210302   -1.410010   -1.301013
H     -2.428340   -1.080974   -0.762210
H      0.978562    0.132826    2.330186
H      0.133900   -0.592769   -2.402028
H     -0.401167   -2.649299   -1.277479
H     -1.455626   -3.023000    1.072432
