37

C     -3.165856   -1.074029    1.740420
C     -3.360915   -1.388410   -0.688883
C     -0.696020    3.414006    0.476687
C     -0.441071   -1.878676   -0.105555
C      0.702481   -1.699924   -1.027135
C     -1.070148    0.538635   -0.531406
C      2.609150    1.425049    0.249190
C      3.104318   -1.295880   -0.561182
C     -2.608925   -1.051717    0.546283
C      0.395855    2.425061    0.291660
C     -1.162367   -0.679620    0.362855
C      1.750218   -0.753700   -0.575995
C      0.230976    1.201764   -0.138236
C      1.533531    0.496114   -0.198535
C      1.805232    2.663828    0.563792
O      4.101614   -0.463862   -0.147416
O      2.283348    3.743390    0.997315
H     -2.606573   -0.827228    2.625540
H     -4.203487   -1.345565    1.829114
H     -3.120145   -2.396356   -1.038636
H     -4.458909   -1.335734   -0.541464
H     -3.063423   -0.622357   -1.460208
H     -1.139753    3.311815    1.496578
H     -1.507678    3.280623   -0.255062
H     -0.285594    4.433491    0.344198
H     -0.060273   -2.440519    0.790672
H     -1.140184   -2.607319   -0.591263
H      1.121349   -2.706900   -1.254942
H      0.288974   -1.343984   -2.016574
H     -1.879508    1.248765   -0.376459
H     -0.964899    0.204324   -1.583651
H      3.074805    1.136978    1.198276
H      3.321426    1.669211   -0.567310
H      3.092111   -2.167661    0.160098
H      3.409659   -1.717732   -1.556251
H     -0.761023   -0.396465    1.380363
H      4.871704   -0.999416    0.163124
