84

C     -7.270563   -2.178234    0.683527
C     -6.770910   -2.239703    2.089382
C     -7.117204   -0.799407    0.121535
C     -5.289479   -1.876991    2.115356
C      8.745895    1.267280    1.801549
C     -3.092946   -1.247376    0.333855
C      9.754343    0.642238    0.867890
C     -2.428994   -1.229195   -1.041061
C      8.461355   -1.098450   -0.061107
C     -0.897527    0.315330   -0.407144
C      8.487989   -0.788344   -1.527831
C      0.201273   -0.731787   -0.375474
C      7.462799    1.299336   -1.679759
C      1.743357   -1.732323   -1.691036
C      6.225676    0.779127   -2.415753
C      2.832539   -1.368746   -0.714556
C      4.715705    1.719903   -0.911472
C      4.335294    0.362477   -0.313166
C    -10.080979    1.250037   -0.357775
C     -9.064516    2.236285    0.154069
C     -7.910074    0.209512    0.951141
C     -4.580971   -2.851705    1.267635
C      9.038991    2.704299    1.964899
C     -7.769584    1.585306    0.397286
C     -7.686879    2.806279   -1.504689
N     -3.637521   -2.547438    0.508689
N     -8.796130    3.138232   -0.945825
N     -7.110473    1.684174   -0.860881
O     -5.044280   -4.178467    1.375942
O     10.022106    3.247423    1.358548
O      8.233773    3.481139    2.791290
O     -7.088242    3.443787   -2.609607
O      9.526457   -0.664355    0.651636
O     -1.860538   -0.020902   -1.334714
O      8.519189    0.491849   -1.909013
O      0.748881   -0.777407   -1.646733
O      5.129040    1.581207   -2.208509
O      3.316559   -0.126241   -1.100840
S     -9.673372   -0.202719    0.690454
H     -6.610138   -2.863737    0.084760
H     -8.323725   -2.543138    0.625262
H     -6.908730   -3.296848    2.438566
H     -7.339696   -1.609138    2.802130
H     -6.069834   -0.522925    0.028098
H     -7.512569   -0.823321   -0.926430
H     -4.958106   -1.946321    3.187452
H     -5.108246   -0.860840    1.777740
H      8.901885    0.721222    2.783286
H      7.707067    1.119354    1.561505
H     -2.320492   -1.107019    1.134230
H     -3.775263   -0.396173    0.383899
H      9.851081    1.260397   -0.059084
H     10.769074    0.746036    1.354748
H     -3.293660   -1.347407   -1.762708
H     -1.783464   -2.101496   -1.201380
H      7.491723   -0.710863    0.354883
H      8.381398   -2.207425    0.074185
H     -1.283938    0.560231    0.583026
H     -0.401776    1.249289   -0.795606
H      7.685670   -1.409086   -2.033186
H      9.442554   -1.315099   -1.908675
H      0.908371   -0.378370    0.408821
H     -0.132539   -1.729766   -0.097321
H      7.678209    2.320631   -2.100547
H      7.212052    1.442899   -0.618314
H      1.349999   -2.757057   -1.516319
H      2.209211   -1.654577   -2.710120
H      6.431580    0.793566   -3.517295
H      6.083060   -0.261390   -2.139389
H      3.650669   -2.134056   -0.899449
H      2.572658   -1.448211    0.336400
H      5.394808    2.285122   -0.254444
H      3.750197    2.293142   -0.939734
H      4.001235    0.521720    0.753695
H      5.238045   -0.257452   -0.305946
H    -11.099279    1.583887   -0.174156
H     -9.857097    0.955313   -1.399376
H     -9.466259    2.818267    1.009583
H     -7.630925    0.186677    2.008101
H     -7.222505    2.209685    1.162757
H     -6.372795    1.082819   -1.242225
H     -4.667351   -4.869542    0.743313
H      8.492582    4.466281    2.928476
H     -7.394783    4.349289   -2.902963
