66

C     -4.444758    0.922635   -1.422368
C     -3.259237    0.534077   -0.661098
C     -5.800245    0.927140   -0.903961
C     -2.787774    1.468851    0.422019
C      8.325175   -1.404956   -1.132014
C      0.004767   -0.756621    1.520558
C      7.021947   -1.053840   -1.808836
C      0.762939   -1.624730    0.537531
C      5.858691   -2.696501   -0.745000
C      2.055290    0.115145   -0.281718
C      5.150802   -1.717319    0.162807
C      3.322658   -0.348936    0.416196
C     -7.173187   -0.525445    1.777340
C     -8.152355    0.205213    0.932871
C     -6.221419    1.609571    0.321542
C     -1.615676    0.916619    1.146537
C      9.199152   -0.192989   -1.011641
C     -7.724856    1.537720    0.546632
C     -8.674475    0.378295   -1.201527
N      9.459528    2.109456   -1.420116
N     -1.134120   -0.218330    0.818034
N     -8.563645   -0.468205   -0.246139
N     -8.349368    1.696278   -0.760109
N      8.765107    0.913401   -1.462412
O     -1.057805    1.644167    2.174385
O     10.443170   -0.289931   -0.423239
O     -9.065451    0.065962   -2.523067
O      6.196124   -2.134264   -1.946654
O      1.200174   -0.926004   -0.558981
O      3.985822   -1.242163   -0.390269
S     -5.750891    0.597736    1.819446
H     -4.443151    0.268862   -2.378118
H     -4.221876    1.942316   -1.892707
H     -2.355014    0.418849   -1.345915
H     -3.326385   -0.487041   -0.197380
H     -6.477612    1.282977   -1.772653
H     -6.154854   -0.171680   -0.841933
H     -3.559322    1.889780    1.026961
H     -2.323403    2.404800   -0.101600
H      8.876442   -2.175031   -1.709414
H      8.169175   -1.819510   -0.099864
H      0.644053    0.101575    1.826649
H     -0.251470   -1.314460    2.431542
H      6.558392   -0.205494   -1.260017
H      7.291486   -0.719692   -2.849778
H      1.575899   -2.137772    1.097948
H      0.071729   -2.412496    0.187994
H      5.105470   -3.532366   -0.911903
H      6.686303   -3.167565   -0.188227
H      2.398607    0.516526   -1.277283
H      1.602637    0.957549    0.242658
H      5.796296   -0.893102    0.492486
H      4.857848   -2.266488    1.100845
H      3.096383   -0.746726    1.435296
H      3.965628    0.562725    0.525514
H     -6.817090   -1.457074    1.251134
H     -7.529544   -0.746482    2.793471
H     -9.089626    0.316094    1.569587
H     -5.878605    2.624395    0.414462
H     -8.056993    2.380700    1.160156
H     10.490114    2.136246   -1.599390
H      8.993854    3.004440   -1.213450
H     -8.530087    2.600325   -1.284440
H     -0.651136    1.165794    2.986270
H     10.863025    0.530996    0.027785
H     -9.353258   -0.894000   -2.745463
