62

C     -3.286414    0.122156    1.216132
C     -2.433392    1.181802    0.609870
C     -4.357662   -0.376891    0.247580
C     -1.701976    0.749014   -0.625932
C      0.378496   -1.831307    1.157742
C      8.651732    1.691042   -1.436883
C      1.343095   -1.330136    2.238211
C      7.884495    0.423025   -1.031614
C      2.863321   -0.527052    0.699388
C      6.339481   -0.349238    0.529586
C      3.840654   -1.627657    0.985679
C      5.422087   -0.872250   -0.523787
C     -7.835920    1.562555    0.358033
C     -7.465343    1.249558   -1.070874
C     -5.249983    0.765658   -0.152185
C     -0.770135   -0.340857   -0.372200
C     -6.306703    0.319137   -1.093851
C     -8.236967   -0.823621   -1.390386
N     10.690192    0.478011    1.072463
N     -0.512694   -0.775721    0.802838
N      9.443496    2.082677   -0.297219
N     -8.531384    0.414006   -1.582649
N     -6.959411   -0.924233   -0.739967
N      9.972539    1.296736    0.460518
O     -0.139409   -0.918853   -1.493971
O     -9.075813   -1.879691   -1.778201
O      2.088289   -0.257026    1.799520
O      7.084561    0.708666    0.047228
O      4.645469   -1.942209   -0.081436
S     -6.241353    1.365859    1.248420
H     -3.857027    0.509624    2.102435
H     -2.667510   -0.711063    1.562903
H     -1.670421    1.492126    1.386185
H     -2.992801    2.103284    0.342694
H     -3.883982   -0.856106   -0.631197
H     -4.932164   -1.135260    0.788164
H     -2.493244    0.456645   -1.383110
H     -1.194114    1.638645   -1.101641
H      0.904437   -2.324788    0.342887
H     -0.239333   -2.628010    1.664070
H      7.958832    2.493925   -1.753262
H      9.317033    1.461763   -2.297322
H      0.665465   -0.929541    3.048350
H      1.908662   -2.140264    2.696876
H      7.240277    0.212998   -1.928877
H      8.632019   -0.362580   -0.850279
H      3.397094    0.424183    0.435674
H      2.287717   -0.802066   -0.199916
H      7.055341   -1.143626    0.821732
H      5.774942    0.041392    1.413122
H      4.390608   -1.369142    1.913573
H      3.231623   -2.548025    1.200469
H      4.831229   -0.083038   -1.021551
H      6.075741   -1.320777   -1.330196
H     -8.610666    0.919565    0.772647
H     -8.069420    2.639830    0.408746
H     -7.321970    2.164340   -1.679032
H     -4.728975    1.613872   -0.588043
H     -5.970327    0.239447   -2.146362
H     -6.670218   -1.736944   -0.174259
H      0.087996   -1.924460   -1.472196
H    -10.000193   -1.680018   -2.145332
