55

C      1.507746    0.810523    1.612424
C     -1.610519    2.571015   -0.150693
C      4.331161    0.423161   -1.796254
C      5.438242   -1.270431   -0.354723
C     -5.528396   -0.196742    0.800262
C     -3.355207   -0.973722    1.865169
C      3.027019   -1.576998    0.675391
C     -3.822348    0.885087   -1.006359
C      1.738687   -1.087629   -1.324792
C     -2.102607   -0.825972   -0.787337
C      2.243210    0.750200    0.294705
C     -2.018246    1.282389    0.577964
C      3.048332   -1.584760   -0.863547
C     -3.559186   -0.584920   -0.647293
C      3.454918   -0.121314    0.539136
C     -3.487336    1.154910    0.466728
C      1.421908    0.331621   -0.862954
C     -1.246882    0.103500    0.043046
C      4.132077   -0.562496   -0.728179
C     -4.003461   -0.236210    0.747059
B     -0.087090    0.634980   -0.806973
H      1.189227   -0.152645    2.000087
H      2.237277    1.226345    2.355502
H      0.686255    1.578566    1.590473
H     -1.322493    2.310338   -1.198906
H     -0.735409    3.041995    0.315010
H     -2.486357    3.256915   -0.245464
H      5.417858    0.477505   -2.109527
H      3.802905    0.160054   -2.756963
H      4.103189    1.490923   -1.504072
H      6.277950   -0.890543   -1.007288
H      5.745315   -1.056370    0.676158
H      5.384390   -2.357269   -0.571008
H     -5.931512   -0.815267    1.621345
H     -5.899121    0.852456    0.945918
H     -5.985082   -0.552824   -0.141123
H     -4.180931   -1.323838    2.552179
H     -2.738967   -0.294956    2.513100
H     -2.817154   -1.887862    1.571665
H      2.035995   -1.757071    1.072833
H      3.866689   -2.169369    1.096384
H     -4.873016    1.120580   -1.190615
H     -3.081879    1.289108   -1.713160
H      1.670162   -1.191238   -2.426587
H      0.910998   -1.732330   -0.920577
H     -1.845041   -0.767820   -1.876734
H     -1.913621   -1.907519   -0.521122
H      2.653014    1.793652    0.143952
H     -1.757927    1.478459    1.655045
H      3.312705   -2.538860   -1.307056
H     -4.154918   -1.305318   -1.191741
H      4.084992    0.264403    1.338825
H     -4.018438    1.977581    0.924296
H      1.777271    0.953685   -1.745030
H     -0.936347   -0.497660    0.941780
