55

C      1.645600    0.851952    1.968585
C     -1.555370   -2.026083   -0.417209
C      3.642436   -2.172527   -0.554072
C      5.648696   -0.619267   -0.411246
C     -4.373404    0.594674    1.664630
C     -5.551057    0.814579   -0.519684
C      3.675395    1.248527   -0.069583
C     -2.984825    0.561326   -1.472327
C      2.037974    0.089531   -1.445524
C     -2.045987    1.553919    0.630203
C      2.118971   -0.253284    1.043323
C     -2.243954   -0.897747    0.350813
C      3.496015    0.278629   -1.244736
C     -3.161295    1.562501   -0.350732
C      3.584329   -0.012474    0.801534
C     -3.440446   -0.487712   -0.447888
C      1.308365   -0.369839   -0.199493
C     -1.307657    0.220244    0.677045
C      4.131856   -0.776178   -0.367145
C     -4.242096    0.609518    0.180040
B     -0.058607    0.352750   -0.187215
H      1.085178    0.447185    2.849034
H      1.038761    1.576914    1.392205
H      2.487199    1.431861    2.402425
H     -1.086407   -1.686028   -1.339614
H     -0.907068   -2.629443    0.244024
H     -2.392234   -2.722737   -0.718694
H      3.067742   -2.260552   -1.501625
H      3.113964   -2.595531    0.319335
H      4.553259   -2.820387   -0.715057
H      6.046789   -0.435511    0.606359
H      6.113388   -1.537584   -0.843858
H      5.965457    0.215442   -1.054767
H     -3.508913    0.196538    2.207476
H     -5.333124    0.115978    1.927044
H     -4.471956    1.669253    1.998972
H     -5.899638   -0.120040   -1.010338
H     -5.489161    1.606640   -1.287050
H     -6.364064    1.123427    0.190917
H      2.813275    1.929217    0.052177
H      4.657084    1.725727   -0.016478
H     -1.982278    0.426933   -1.860184
H     -3.752473    0.749814   -2.257005
H      1.622233    1.067376   -1.826939
H      1.893078   -0.618561   -2.300227
H     -2.446493    1.842929    1.619919
H     -1.337945    2.380058    0.345821
H      2.062101   -1.199739    1.659544
H     -2.641015   -1.401164    1.282531
H      4.011238    0.545058   -2.155372
H     -3.506456    2.552168   -0.621998
H      4.162885    0.010403    1.715848
H     -3.979865   -1.335584   -0.871155
H      1.107605   -1.470400   -0.364737
H     -1.027087    0.097301    1.764884
