84

C      5.693850    2.160709   -0.956145
C      4.376764    2.388234   -0.277937
C      6.669473    1.398750   -0.081175
C      3.663254    1.114783    0.114013
C     -8.975140    1.917835   -0.866208
C      1.708579   -0.839404   -2.419004
C     -9.474930    0.547420   -1.259762
C      2.122625   -2.282365   -2.307529
C     -9.664088   -0.249249    0.925850
C      0.734667   -3.422940   -0.702485
C     -8.538392   -1.220022    0.774012
C     -0.214931   -2.396203   -0.091257
C     -7.235932   -0.517682    2.583572
C     -1.557105   -0.540297   -0.578750
C     -6.140594    0.148296    1.794954
C     -2.817066   -1.042057    0.119433
C     -4.516676   -1.376218    2.486797
C     -3.477325   -2.311254    1.966236
C     10.555733    2.129096   -0.541690
C     10.330819    0.656684   -0.338303
C      7.977104    1.167296   -0.757122
C      3.366524    0.241028   -1.047574
C     -8.116692    2.490633   -1.927145
C      8.916841    0.424802    0.105387
C     10.290004    0.403473    1.896908
N      2.154494   -0.019631   -1.337761
N     11.071644    0.312869    0.859511
N      8.994554    0.805426    1.474702
O      4.356063   -0.317302   -1.849445
O     -7.915263    1.805548   -2.965475
O     -7.574951    3.749521   -1.732604
O     10.719247    0.133097    3.207286
O    -10.265466   -0.013078   -0.296132
O      1.774149   -2.988801   -1.290459
O     -7.869918   -1.538179    1.936839
O     -0.748404   -1.542828   -0.956724
O     -5.163823   -0.747172    1.456535
O     -2.513180   -1.725482    1.246825
S      8.909978    2.724362   -1.027767
H      5.589689    1.650407   -1.912562
H      6.107076    3.170858   -1.185346
H      3.728483    2.953864   -0.981450
H      4.537365    2.957080    0.666444
H      6.857845    2.014918    0.825602
H      6.264145    0.430575    0.234478
H      4.265664    0.586218    0.885407
H      2.732053    1.411293    0.613264
H     -9.832832    2.595962   -0.652733
H     -8.379568    1.839507    0.056585
H      2.359162   -0.444550   -3.314011
H      0.709593   -0.686130   -2.801658
H     -8.626893   -0.066131   -1.606821
H    -10.127089    0.671978   -2.170259
H      1.796561   -2.788284   -3.309536
H      3.266764   -2.335687   -2.422585
H     -9.382697    0.704429    1.426782
H    -10.446526   -0.717328    1.572673
H      0.089149   -4.101701   -1.395084
H      0.954958   -4.201464    0.135168
H     -7.771556   -0.890088    0.042868
H     -8.999031   -2.180694    0.411219
H     -0.992147   -3.036104    0.433522
H      0.315844   -1.862750    0.742791
H     -7.983756    0.283922    2.831179
H     -6.878791   -0.900254    3.559643
H     -1.059499    0.189149    0.128364
H     -1.868480    0.111078   -1.458550
H     -5.711615    0.953580    2.461637
H     -6.520487    0.646042    0.890326
H     -3.443268   -0.123716    0.265148
H     -3.395236   -1.647191   -0.626642
H     -4.020425   -0.612874    3.157746
H     -5.234653   -1.953649    3.125285
H     -2.973763   -2.832566    2.850208
H     -3.955012   -3.142694    1.350308
H     10.968275    2.647997    0.323915
H     11.196098    2.228335   -1.458201
H     10.626138    0.038423   -1.208352
H      7.880959    0.610425   -1.719572
H      8.733822   -0.668031   -0.014857
H      8.288914    1.266617    2.052408
H      4.315168   -0.231759   -2.875134
H     -7.135306    4.222200   -2.511910
H     11.548420   -0.390914    3.427201
