39

C      6.958139    1.005620   -0.378234
C     -2.754168   -1.502252   -1.125908
C     -1.417595   -1.141407   -0.983253
C     -5.168690   -1.274827   -0.625026
C     -5.894029   -0.085800   -1.210985
C     -2.091973    0.525750    0.544901
C      3.488427   -0.113685    0.290950
C      1.152292    0.003504    1.156010
C     -4.494200    0.889128    1.166488
C      5.805544    0.210868    0.107276
C     -3.756888   -0.859716   -0.442605
C     -3.428979    0.168870    0.405823
C     -1.087043   -0.108422   -0.131492
C      2.395940    0.810569    0.844464
C      1.057222    0.999191   -0.942306
N      4.623186    0.617384   -0.155863
N      0.290938    0.273455    0.021336
O      6.000896   -0.950791    0.832357
O      0.840632    1.001487   -2.199084
O      2.040781    1.665618   -0.226381
S     -5.835436    1.255722    0.005016
H      6.867189    1.064400   -1.501004
H      6.927755    2.038297    0.069015
H      7.923610    0.500635   -0.197054
H     -2.958166   -2.314282   -1.802930
H     -0.637051   -1.663915   -1.534135
H     -5.647536   -1.563217    0.341282
H     -5.223249   -2.166490   -1.275842
H     -5.263742    0.265694   -2.080462
H     -6.919270   -0.324601   -1.528306
H     -1.865740    1.337181    1.218148
H      3.669834   -0.900256    1.019827
H      3.023270   -0.582475   -0.621258
H      0.699474    0.347570    2.106418
H      1.459730   -1.067340    1.201779
H     -4.104005    1.839801    1.541701
H     -4.886077    0.249893    1.987633
H      2.769460    1.344910    1.726663
H      5.439518   -1.796070    0.649189
