57

C     -4.417344    0.051576   -0.338111
C     -2.936350   -0.449033    1.431012
C      4.191566   -1.167897   -0.316570
C      4.022324    0.565193    1.292950
C     -5.487268    0.158649    0.564141
C     -3.991415   -0.346115    2.342693
C      5.266868   -1.708735    0.317504
C      5.109619    0.034155    1.950517
C      1.045008   -1.535708    0.910070
C     -0.886978    2.700345   -2.601001
C     -0.629079   -3.180283    0.856181
C      1.333426    3.378376   -2.332122
C     -3.153856   -0.250466    0.099458
C      3.553378   -0.038726    0.145382
C     -5.251993   -0.043919    1.898052
C      5.737007   -1.105983    1.465186
C      0.601900   -2.802983    1.263024
C      0.115529    3.575176   -2.951714
C      0.301345   -0.633006    0.163408
C     -0.704966    1.666454   -1.673214
C     -1.413584   -2.300764    0.105064
C      1.518989    2.354579   -1.412388
C     -2.020776   -0.348351   -0.914573
C     -0.943630   -1.014585   -0.241144
C      0.486505    1.503152   -1.089389
C      1.056061    0.568275   -0.067868
C     -1.943574    0.937934   -1.552213
C      2.447348    0.513968   -0.590798
O     -6.333525    0.065731    2.797089
O      6.831349   -1.683203    2.082683
O      1.392017   -3.668339    2.012986
O     -0.072959    4.601529   -3.874352
O     -2.633255   -2.797458   -0.248749
O     -2.451365    0.828449   -2.891364
O      2.663044    1.981508   -0.682398
H     -4.655922    0.222331   -1.394136
H     -1.967267   -0.684599    1.838512
H      3.828324   -1.657511   -1.228115
H      3.551122    1.464824    1.702405
H     -6.486533    0.394801    0.241456
H     -3.826818   -0.501923    3.396517
H      5.753182   -2.615457   -0.082502
H      5.483327    0.505623    2.854850
H      2.007191   -1.289749    1.308872
H     -1.859263    2.840551   -3.082674
H     -1.018430   -4.171785    1.110532
H      2.157488    4.050631   -2.580637
H     -2.436751   -1.097489   -1.668915
H      1.106485    1.202933    0.876444
H     -2.705618    1.662454   -1.101513
H      2.421790    0.173384   -1.656127
H     -6.517662    0.974817    3.196179
H      7.226489   -1.294141    2.925374
H      1.312982   -3.633484    3.022527
H     -0.386419    5.530564   -3.586612
H     -3.397968   -2.515008   -0.746794
H     -1.991094    0.028739   -3.265075
