39

C      6.090771    0.382150   -0.653321
C     -2.832231   -1.876278   -0.502688
C     -1.478339   -1.670343   -0.468103
C     -5.188665   -1.206414   -0.448049
C     -6.224402   -0.285534    0.010544
C     -1.836227    0.616783   -0.180373
C      3.635506    1.142159    0.812763
C      1.242933    0.963668    0.128314
C     -4.074293    1.629777   -0.052921
C      5.777700    0.012288    0.743476
C     -3.766211   -0.821774   -0.374889
C     -3.224906    0.414549   -0.214657
C     -0.934292   -0.413837   -0.305426
C      2.403190    0.280143    0.838939
C      1.470611   -1.152616   -0.639175
N      4.712018    0.349321    1.360248
N      0.467860   -0.193402   -0.267343
O      6.692940   -0.760620    1.467204
O      1.345262   -2.096201   -1.440062
O      2.646536   -0.849393    0.061844
S     -5.611828    1.193165    0.814235
H      7.076361   -0.038010   -0.914436
H      6.114182    1.511057   -0.703426
H      5.283127    0.018678   -1.328481
H     -3.235419   -2.886988   -0.633415
H     -0.773270   -2.497866   -0.566731
H     -5.367229   -1.431260   -1.533759
H     -5.338490   -2.225866    0.032722
H     -6.938227   -0.050944   -0.823858
H     -6.881238   -0.812683    0.763396
H     -1.442553    1.630317   -0.048586
H      3.797207    1.421701   -0.252013
H      3.456644    2.060690    1.410210
H      0.688202    1.532123    0.879886
H      1.564352    1.573692   -0.738436
H     -4.307421    2.096046   -1.021249
H     -3.544525    2.367724    0.558646
H      2.098441    0.041944    1.880429
H      6.435922   -1.186732    2.348542
