46

C      8.055770    0.054248   -1.023260
C     -7.230932   -0.369494   -1.761019
C     -1.597705    1.866407    1.174093
C     -0.272733    1.611230    0.924574
C     -2.872305   -1.686841    1.253050
C     -4.329842   -1.382828    1.243768
C     -0.649874   -0.688320    0.894136
C      4.364578    0.339323   -1.659721
C     -3.927123    1.026658    1.563494
C      2.267020   -0.465357   -0.625302
C      6.640413   -0.330782   -1.279121
C     -2.003355   -0.469483    1.147448
C     -2.473900    0.812417    1.286962
C      0.247595    0.345385    0.776753
C      3.742380   -0.234715   -0.429911
C     -5.591078    0.272085   -0.110574
C      2.688692    0.484899    1.422221
N      5.774191    0.601607   -1.407837
N     -4.631229   -0.023288    0.882671
N      1.654049    0.124727    0.518115
O      6.245006   -1.648334   -1.379692
O     -5.872832    1.467057   -0.445338
O      2.582895    0.613479    2.675567
O     -6.283191   -0.726514   -0.778890
O      3.854266    0.671127    0.658306
H      8.591661   -0.724693   -0.442285
H      8.124771    0.993532   -0.412902
H      8.553080    0.265214   -1.977893
H     -6.923442    0.490126   -2.365460
H     -7.335413   -1.233676   -2.476850
H     -8.247483   -0.224699   -1.323651
H     -2.014243    2.859172    1.291392
H      0.419184    2.458383    0.835543
H     -2.597536   -2.447548    0.465510
H     -2.615774   -2.178281    2.217823
H     -4.848555   -2.061252    0.510896
H     -4.780853   -1.561449    2.249115
H     -0.254570   -1.694461    0.779710
H      3.857961    1.310103   -1.911577
H      4.211995   -0.327935   -2.530034
H     -4.237505    2.037083    1.239535
H     -4.104032    0.924473    2.654585
H      1.922837   -0.020040   -1.581320
H      2.125388   -1.584486   -0.639979
H      4.268362   -1.154156   -0.104223
H      5.503412   -1.938772   -1.998427
