42

C      7.036889    0.144654   -0.215122
C     -2.145304    1.308069    1.109878
C     -0.807086    1.039725    0.838851
C     -3.906515   -1.110396   -1.118034
C     -5.027814   -1.296040   -0.142144
C     -1.483666   -0.651215   -0.722158
C      4.438950   -0.713555    0.016884
C     -4.550230    0.975012    0.810806
C      2.027825   -0.269152    0.449053
C     -6.851100    0.398164    0.151191
C      5.927315    1.118804   -0.224702
C     -2.809830   -0.359547   -0.430018
C     -3.148517    0.607067    0.472945
C     -0.494399    0.062991   -0.075604
C      3.018098   -1.060260   -0.365736
C      1.362402   -0.489386   -1.738730
N      4.712464    0.685855   -0.113276
N     -5.486438    0.025797    0.270495
N      0.875927   -0.213077   -0.404969
O     -7.704733   -0.391016   -0.307143
O      6.138753    2.482772   -0.349093
O      0.616456   -0.513202   -2.763150
O      2.723206   -0.710483   -1.685308
H      6.928270   -0.549721    0.636150
H      7.987767    0.712597   -0.124708
H      7.073739   -0.386511   -1.173894
H     -2.388281    2.077173    1.829298
H     -0.043862    1.600421    1.348454
H     -3.543644   -2.068463   -1.544484
H     -4.248237   -0.490667   -1.968572
H     -4.685293   -1.812864    0.767093
H     -5.874490   -1.865610   -0.584134
H     -1.229906   -1.416614   -1.429020
H      5.122111   -1.240100   -0.686087
H      4.618000   -1.074298    1.037596
H     -4.712728    1.067146    1.894542
H     -4.782442    1.957888    0.324416
H      1.814723   -0.744704    1.430583
H      2.408219    0.761961    0.621680
H     -7.172928    1.384503    0.460917
H      2.852946   -2.146481   -0.202670
H      5.413382    3.162764   -0.514351
