51

C      6.892385    2.456998    0.203093
C     -7.882722    2.623953    0.450740
C     -0.637041   -1.870859    1.203073
C      0.706472   -1.596475    1.068700
C     -2.017719   -0.517281   -2.020585
C     -3.255247   -1.382507   -1.926930
C      0.241590   -0.624268   -1.085746
C      5.598538    0.053071    0.920784
C     -2.983324   -1.873716    0.461052
C      3.201622    0.290678    0.563728
C     -5.532612   -0.316040    1.009059
C      7.459910    1.128247   -0.050666
C     -6.681599    1.783873    0.498003
C     -1.106214   -0.915963   -0.916511
C     -1.544144   -1.535921    0.221167
C      1.110874   -0.971186   -0.091376
C      4.537625    0.382264   -0.118049
C     -4.945948   -0.509523   -0.359731
C      3.361914   -1.295859   -1.168442
N      6.868958    0.037997    0.276883
N     -3.774744   -1.229710   -0.587622
N      2.489175   -0.683327   -0.235182
O      8.709148    1.009633   -0.682142
O     -5.567257    2.223379    0.104967
O     -5.560586    0.012816   -1.318830
O      3.083923   -2.284480   -1.905796
O     -6.704726    0.474491    0.972748
O      4.571168   -0.612746   -1.121594
H      6.131986    2.460998    0.994073
H      6.478384    2.939106   -0.723376
H      7.756423    3.111438    0.531001
H     -7.923277    3.181776   -0.515850
H     -8.818538    2.032813    0.527312
H     -7.865665    3.386954    1.272548
H     -0.961276   -2.370957    2.129621
H      1.444621   -1.851317    1.831516
H     -1.531174   -0.587245   -3.011196
H     -2.347638    0.523402   -1.808076
H     -4.009874   -1.139379   -2.699521
H     -2.995489   -2.466980   -2.048146
H      0.569056   -0.133399   -1.994819
H      5.534126    0.715772    1.793967
H      5.316234   -0.972210    1.286858
H     -3.076153   -2.965763    0.330280
H     -3.347111   -1.540557    1.432277
H      2.675652    1.264063    0.619022
H      3.285070   -0.154426    1.589617
H     -5.831246   -1.320790    1.372796
H     -4.759439    0.132400    1.680241
H      4.669736    1.382109   -0.567274
H      8.966175    0.114652   -1.048357
