39

C      6.825629    0.191300   -0.241902
C     -3.202376   -0.862182   -1.763937
C     -1.832916   -1.079350   -1.646430
C     -3.923944    1.490021    1.078345
C     -4.924993    0.633503    1.841630
C     -1.837466    0.378115    0.240327
C      3.453360   -0.859845    1.102955
C      1.018094   -0.391943    0.715446
C     -5.336320    0.199944   -1.018241
C      5.464384    0.266419    0.348070
C     -3.188526    0.589687    0.120273
C     -3.869606   -0.043966   -0.899301
C     -1.141695   -0.461422   -0.644858
C      2.438380   -0.213253    0.195321
C      1.148707   -1.123373   -1.452570
N      4.767015   -0.786677    0.548003
N      0.238522   -0.654274   -0.497247
O      4.914523    1.492770    0.698876
O      0.902151   -1.689966   -2.545540
O      2.461672   -0.884660   -1.046489
S     -6.069268   -0.060846    0.616883
H      6.768859    0.791346   -1.195395
H      7.103422   -0.852876   -0.439234
H      7.589999    0.687172    0.383490
H     -3.735363   -1.359511   -2.563048
H     -1.379934   -1.740712   -2.368090
H     -4.405018    2.295117    0.505851
H     -3.192485    1.876353    1.811257
H     -4.342497   -0.211245    2.291984
H     -5.435605    1.219738    2.617908
H     -1.313529    0.864959    1.024761
H      3.466137   -0.288381    2.073113
H      3.139233   -1.884345    1.334924
H      0.696186    0.552967    1.191123
H      0.930396   -1.260970    1.373362
H     -5.478185    1.235222   -1.387059
H     -5.764407   -0.492930   -1.781355
H      2.686284    0.830585    0.036664
H      4.361181    1.607507    1.557402
