24

C      3.175081    0.342754   -0.453896
C     -3.145842    0.338712   -0.860575
C      1.215989   -1.076937    1.251387
C      1.732526    0.710200   -0.389396
C     -2.746786   -0.291039    0.443374
C     -0.584547    0.095044    0.024171
C      0.829842   -0.478488   -0.089048
O     -1.496058   -0.902710    0.363512
H      3.377182   -0.742563   -0.373829
H      3.657575    0.739645   -1.391258
H      3.695430    0.908486    0.372745
H     -2.711866    1.364569   -0.993429
H     -4.255668    0.492922   -0.824154
H     -2.865392   -0.300447   -1.731235
H      0.712977   -2.059471    1.372511
H      0.807389   -0.411631    2.035405
H      2.313726   -1.178527    1.314109
H      1.429697    1.124999   -1.379130
H      1.490250    1.483012    0.370317
H     -3.528550   -0.968407    0.831123
H     -2.616595    0.558576    1.176289
H     -0.550418    0.916087    0.769391
H     -0.832859    0.571361   -0.961603
H      0.896916   -1.236147   -0.876781
