25

C     -0.534701    2.195545    0.431319
C     -3.466530   -1.302963   -0.098652
C      3.363951   -0.789728   -0.367963
C      2.518487   -0.253582   -1.291840
C      2.962678   -0.841961    0.951515
C      1.272310    0.232939   -0.912606
C      1.744491   -0.367449    1.328392
C     -0.457853    0.708856    0.756031
C      0.889073    0.175845    0.388826
C     -1.530096    0.016759   -0.013477
N     -2.423498   -0.628867    0.634109
O     -1.581778    0.055118   -1.390873
H     -1.267575    2.406729   -0.355948
H     -0.823944    2.783408    1.329102
H      0.447165    2.527362    0.077874
H     -3.137875   -2.308563   -0.447177
H     -3.848968   -0.671647   -0.930741
H     -4.333063   -1.480217    0.582629
H      4.341983   -1.182759   -0.601440
H      2.834039   -0.214037   -2.320673
H      3.606876   -1.262009    1.721554
H      0.656197    0.644798   -1.705660
H      1.419307   -0.402647    2.356733
H     -0.567039    0.579214    1.833435
H     -2.083637   -0.620146   -1.954469
