25

C     -0.172314    0.446568    1.404275
C      2.802520   -1.558761    1.186747
C     -2.296299    2.094026   -2.080800
C      0.039008   -1.533156    0.002733
C     -0.922072   -0.394079    0.376908
C      2.385376   -0.903360   -0.076252
C     -2.056319    1.318445   -0.849739
N      1.208504   -0.919373   -0.535776
N     -1.175318    0.376483   -0.809500
O      3.363454   -0.228998   -0.794333
O     -2.776251    1.590515    0.287265
H      0.358887   -0.200240    2.137244
H     -0.910766    1.025384    1.976202
H      0.599958    1.062170    0.912900
H      2.777743   -0.860913    2.048339
H      2.173467   -2.434895    1.452004
H      3.846071   -1.891933    1.071758
H     -2.052022    3.169261   -1.949655
H     -3.384522    2.038983   -2.339407
H     -1.763685    1.673547   -2.956763
H     -0.456302   -2.240407   -0.692299
H      0.236026   -2.061908    0.957794
H     -1.858029   -0.791438    0.776552
H      3.100090    0.380863   -1.550872
H     -3.067204    0.843218    0.930140
