29

C      3.156394    1.266154   -0.013308
C     -2.646497    0.684745    0.949767
C     -1.706952    1.092270   -1.296488
C      0.816030   -2.142475    0.781816
C      2.266960    0.311624    0.746498
C      0.974590    0.137225   -0.037125
C     -1.202183   -1.077576   -0.091602
C     -2.130547    0.050977   -0.329102
C      0.036996   -0.812301    0.675404
H      2.535618    1.871413   -0.677574
H      3.873625    0.687858   -0.630809
H      3.771106    1.864556    0.689645
H     -3.026404   -0.130994    1.578595
H     -1.892096    1.311824    1.435787
H     -3.529834    1.298555    0.657271
H     -0.884009    0.816517   -1.979588
H     -2.576461    1.299191   -1.994413
H     -1.506318    2.097133   -0.848087
H      0.099698   -2.980273    0.662583
H      1.536526   -2.231862   -0.061826
H      1.378672   -2.185705    1.723932
H      2.801369   -0.650087    0.832748
H      2.029984    0.749558    1.743947
H      0.524423    1.153298   -0.102739
H      1.229310   -0.183707   -1.064169
H     -1.802303   -1.888089    0.419156
H     -0.938354   -1.510494   -1.080779
H     -3.071456   -0.434878   -0.766310
H     -0.117884   -0.464457    1.699183
