29

C      3.285091    1.260954    0.063562
C     -1.490120    1.371869    1.020340
C     -3.345793   -0.212578    0.824425
C      0.857851   -2.054474   -0.921960
C      2.437892    0.338500   -0.790622
C      1.087028    0.226975   -0.064076
C     -1.125897   -0.883043   -0.071722
C     -2.022862    0.260379    0.176777
C      0.153398   -0.659874   -0.806064
H      2.633823    2.109558    0.356494
H      4.158505    1.654985   -0.478171
H      3.541388    0.708446    0.983992
H     -1.274369    2.267089    0.396035
H     -0.709105    1.065904    1.711806
H     -2.340724    1.702984    1.706219
H     -3.193820   -0.475246    1.874589
H     -3.803890   -1.006105    0.221390
H     -4.023398    0.681156    0.755705
H      1.645477   -1.951946   -1.692885
H      0.108180   -2.752426   -1.294907
H      1.248682   -2.280888    0.073097
H      2.294770    0.794580   -1.778068
H      2.949898   -0.626641   -0.851746
H      1.228404   -0.099286    0.960830
H      0.709565    1.266298   -0.077505
H     -0.926655   -1.350032    0.951583
H     -1.673274   -1.724380   -0.594217
H     -2.337956    0.667081   -0.831617
H     -0.072090   -0.299840   -1.823282
