41

C      5.750654    0.821686   -0.036492
C      4.198970   -0.307075    1.315050
C      6.769878    0.553073    0.849978
C      5.223875   -0.583927    2.218231
C     -4.801374    1.088107   -0.400171
C     -3.802996    1.005722   -1.564301
C      3.396557    0.737505   -0.841217
C     -4.296520   -1.369790   -0.239938
C      4.452949    0.407049    0.163850
C      6.517757   -0.160764    2.001292
C     -5.262878   -0.265130    0.019270
C     -2.650704    0.236877   -1.038956
C     -0.288995    0.007751   -0.733615
C     -0.547882   -1.167115   -0.080041
C      1.028032    0.580652   -0.953888
C     -1.877661   -1.597160    0.068419
F      7.512403   -0.442371    2.900467
N     -5.703154   -0.206832    1.406463
N      2.142093    0.112586   -0.585175
N     -1.404493    0.665680   -1.192714
N     -2.921539   -0.909603   -0.402217
O      0.459930   -1.933888    0.431976
O      1.069424    1.800054   -1.661491
O     -2.095872   -2.678062    0.671457
H      5.956250    1.391079   -0.953094
H      3.207691   -0.646463    1.511205
H      7.780502    0.888338    0.672438
H      5.029774   -1.146247    3.126961
H     -5.628579    1.775232   -0.650354
H     -4.259344    1.554540    0.453885
H     -3.541653    2.022249   -1.886089
H     -4.345704    0.436914   -2.359247
H      3.778021    0.589069   -1.872053
H      3.238552    1.852996   -0.742745
H     -4.541513   -1.951054   -1.147352
H     -4.350071   -2.070061    0.638677
H     -6.191980   -0.495443   -0.578012
H     -5.611295   -1.132672    1.839131
H     -6.673193    0.190312    1.474871
H      1.411202   -1.721951    0.374590
H      1.872886    2.068133   -2.219048
