62

C     -5.916950   -1.710122   -2.174689
C     -5.145870   -0.890471   -0.034704
C     -6.426097    0.541105   -1.492170
C      6.630354   -1.896461    1.792760
C      3.783911    5.215816    0.528540
C      6.240321   -2.857838    0.906880
C      5.734856   -0.942920    2.190284
C      3.744209    4.976424   -0.832021
C      3.044033    4.404564    1.367347
C      4.944683   -2.869802    0.412687
C      4.434143   -0.958099    1.692166
C      2.992429    3.960250   -1.365096
C      2.305586    3.398672    0.805919
C     -1.898866   -0.862767    0.755297
C     -0.626597   -2.839609    1.640043
C      4.020208   -1.917609    0.799287
C      2.247526    3.138492   -0.549356
C     -0.562894   -1.391060    1.231123
C     -1.564750    0.341647   -0.119291
C      0.374636   -1.136826    0.064069
C     -0.109626    0.164694   -0.540320
C      2.681511   -1.990277    0.243974
C      1.428261    2.037867   -1.077095
C     -3.216623    0.807859   -1.986331
C     -5.283101   -0.485754   -1.448755
N     -2.427283    0.639002   -1.132810
O     -1.545654   -3.011510    2.693280
O      2.394657   -2.889408   -0.574411
O      1.351129    1.778850   -2.297652
O     -3.167397    1.990701   -2.787985
O      1.672389   -1.096953    0.576908
O      0.710137    1.245641   -0.218102
O     -4.187478   -0.169536   -2.191811
H     -6.648194   -2.144910   -1.497681
H     -6.364673   -1.380219   -3.124817
H     -5.090476   -2.423366   -2.443020
H     -4.736269   -1.917992    0.022255
H     -4.685712   -0.153144    0.624758
H     -6.206395   -0.996733    0.361816
H     -7.174103    0.198796   -0.758240
H     -5.982144    1.514744   -1.286182
H     -6.809729    0.522081   -2.529304
H      7.668314   -1.933919    2.153636
H      4.363818    6.007610    0.986085
H      6.911337   -3.644689    0.552304
H      6.066036   -0.198056    2.884529
H      4.346729    5.645386   -1.448358
H      3.068734    4.582873    2.431963
H      4.682391   -3.653289   -0.286954
H      3.722671   -0.223122    1.992118
H      2.989170    3.816951   -2.435414
H      1.726544    2.760943    1.456133
H     -2.527086   -0.498550    1.577642
H     -2.386885   -1.666427    0.219229
H      0.390999   -3.154699    1.938611
H     -0.944821   -3.427922    0.754612
H     -0.297788   -0.795254    2.124232
H     -1.502835    1.261117    0.575209
H      0.183336   -1.957983   -0.661389
H     -0.111588    0.064399   -1.643187
H     -1.042305   -3.275406    3.483813
H     -2.264868    2.346222   -3.108886
