43

C     -2.573999    2.353089   -0.417781
C      2.566468   -1.867780    1.596417
C      1.977894    1.783599   -1.663301
C     -2.358371    1.479011    0.793160
C     -2.555637   -2.084550   -1.335345
C     -3.561596   -1.884298   -0.252085
C      4.946152    0.749153    0.348421
C      4.444086   -0.327954    1.048754
C      4.167941    1.475193   -0.557122
C     -1.347030   -1.212353   -1.115714
C     -3.664805   -0.456187    0.241455
C      3.123400   -0.712088    0.855945
C      2.860578    1.052674   -0.712804
C     -1.323460   -0.700528    0.318997
C      2.316448   -0.015090   -0.036396
C      0.017752   -0.265698    0.632375
N      0.952087   -0.410213   -0.241692
N     -2.411064    0.107854    0.584508
O      0.417900    0.316814    1.834597
H     -1.843622    2.226984   -1.208669
H     -2.461362    3.416286   -0.048639
H     -3.632986    2.298861   -0.760067
H      1.719189   -2.280286    1.015124
H      3.376484   -2.617243    1.686047
H      2.281977   -1.544474    2.611901
H      2.394362    1.586917   -2.682216
H      0.949590    1.422182   -1.629689
H      2.068657    2.866336   -1.470769
H     -3.217385    1.752244    1.488410
H     -1.464918    1.844002    1.374098
H     -2.214638   -3.144102   -1.310634
H     -2.970836   -1.821387   -2.343427
H     -3.388734   -2.577702    0.616224
H     -4.558058   -2.157737   -0.657240
H      5.972740    1.030340    0.513215
H      5.067193   -0.888121    1.756053
H      4.577533    2.322407   -1.104572
H     -1.328582   -0.363260   -1.832816
H     -0.424701   -1.792743   -1.285146
H     -4.245351    0.131102   -0.510254
H     -4.293744   -0.488718    1.162767
H     -1.476656   -1.661271    0.919030
H      1.119102    1.058734    1.778881
