21

C      2.825574    0.182799   -0.054829
C     -1.704938   -1.488784    0.812552
C     -1.764615    1.621864   -0.601527
C      1.344318    0.402820   -0.386213
C      0.538686   -0.633874    0.361201
C     -0.935126   -0.433942    0.046774
O     -1.304563    0.840660    0.435984
H      3.040187   -0.896103    0.059009
H      3.044080    0.759641    0.873176
H      3.453431    0.574773   -0.853541
H     -1.826236   -2.364400    0.147029
H     -1.101066   -1.828394    1.685436
H     -2.684155   -1.110676    1.155411
H     -2.030192    2.611915   -0.181897
H     -2.703697    1.145155   -0.998540
H     -1.054037    1.658030   -1.432229
H      1.258470    0.311744   -1.468925
H      1.073753    1.407973   -0.062889
H      0.731928   -0.549138    1.449023
H      0.884272   -1.640471    0.053188
H     -1.086072   -0.571592   -1.038190
