46

C      6.574128    0.312916   -0.542582
C     -3.101526   -2.321515   -2.498216
C     -3.888797    1.094634    1.158336
C      1.590372    0.678884   -1.314265
C      2.202157    1.620709   -2.122398
C     -5.075562    1.073363    0.595846
C     -1.537008    0.390475    1.396286
C     -2.841570   -0.584705   -0.340172
C      3.671719   -0.027290   -0.485708
C     -2.744144    0.281404    0.721415
C      2.300983   -0.155288   -0.488732
C     -0.447037   -0.362072    1.005910
C      3.563223    1.746530   -2.118228
C      4.310310    0.914955   -1.291873
C     -1.756013   -1.363144   -0.763036
C     -6.171941    1.913516    1.086254
C      0.951349   -0.475663    1.509506
C      1.655615   -1.151188    0.365828
C     -0.578140   -1.220500   -0.062049
C      0.932431   -1.391512    2.656450
O      4.171085    2.703936   -2.940963
O     -5.967978    2.670297    2.067699
O     -7.419128    1.887964    0.491329
O      1.311364   -0.985414    3.774301
O      0.503048   -2.686419    2.510807
O      5.684146    1.072513   -1.315615
O     -1.853966   -2.237238   -1.834241
O      0.632891   -1.896882   -0.308805
H      6.713346   -0.670220   -1.028873
H      7.565315    0.805023   -0.520032
H      6.252779    0.208320    0.513081
H     -3.924915   -2.543916   -1.790393
H     -3.303786   -1.330090   -2.973108
H     -3.079390   -3.092594   -3.304198
H     -3.784738    1.776230    2.006182
H      0.514186    0.586846   -1.324248
H      1.615593    2.259848   -2.758606
H     -5.268697    0.431774   -0.245313
H     -1.418813    1.061891    2.238556
H     -3.769549   -0.701199   -0.897276
H      4.280334   -0.651159    0.138462
H      1.382111    0.516879    1.750798
H      2.379731   -1.922747    0.715308
H      5.167142    2.831780   -2.970646
H     -8.269236    2.212373    0.971684
H      0.276576   -3.282303    3.297927
