30

C     -3.801144   -1.509451   -0.415154
C     -2.559607   -1.004550   -0.057711
C      5.394109   -0.305994    0.901807
C      4.482792    0.562848    0.281473
C     -4.840598    0.673981   -0.012447
C      2.658000    1.042952   -2.345761
C     -0.361962    0.050756    1.528576
C      4.054197   -1.521225   -0.244548
C     -4.944282   -0.660960   -0.391764
C     -2.446804    0.353642    0.331728
C     -3.561791    1.129792    0.339524
C      2.555488    0.281981   -1.184152
C     -1.077141    0.948053    0.607840
C      1.351049    0.042256   -0.619745
Cl    -6.519437   -1.268115   -0.839098
Cl    -3.435146    2.843144    0.809100
N      2.756294    1.712155   -3.349498
N      5.125395   -1.582677    0.574927
N      3.655621   -0.267284   -0.433394
S      0.950623   -0.899136    0.832424
S     -0.230887    0.764748   -1.084349
H     -3.926710   -2.498798   -0.728438
H     -1.630206   -1.609236   -0.105466
H      6.182645    0.067024    1.540812
H      4.406095    1.619897    0.332200
H     -5.655042    1.376688    0.030280
H     -1.123238   -0.644323    1.974169
H      0.068579    0.688508    2.392594
H      3.555229   -2.394066   -0.702214
H     -1.082124    2.007392    0.753597
