45

C     -2.899136    2.786827    2.419452
C      4.218184   -0.690523   -0.327505
C     -4.861719   -1.228292   -0.918407
C     -0.447536   -2.858992   -1.985258
C      1.876000    0.959149    1.613553
C      3.369947    0.592000    1.430745
C     -2.021514   -1.039085   -0.610100
C      2.300729   -0.086443   -1.917603
C     -3.277686    1.693007    1.522000
C      1.358726    0.073734    0.448512
C      2.202134    0.617846   -0.616745
C     -2.864399   -0.186362    0.032235
C     -0.660932   -0.927102   -0.446403
C     -2.333967    0.809351    0.863777
C     -0.072994    0.023855    0.350777
C     -0.960601    0.906051    1.015296
N      3.548773    0.535157   -0.002262
O      3.298481    0.621366   -2.662607
O     -4.528284    1.529288    1.323330
O     -0.399924    1.811641    1.777200
O     -4.249215   -0.254646   -0.095769
O      0.094430   -1.872933   -1.162118
H     -3.849472    3.301971    2.789822
H     -2.305517    3.573935    1.927048
H     -2.385130    2.447213    3.335513
H      5.121175   -0.723687    0.350970
H      3.643246   -1.590704   -0.079483
H      4.630001   -0.756201   -1.339477
H     -4.411578   -2.240219   -0.811790
H     -5.931344   -1.370692   -0.580403
H     -4.955353   -0.905577   -1.972614
H      0.389175   -3.321481   -2.550382
H     -1.199497   -2.463597   -2.692952
H     -0.859656   -3.686858   -1.341696
H      1.477912    0.669786    2.569266
H      1.765150    1.992243    1.280259
H      4.028542    1.293449    1.937505
H      3.463705   -0.418424    1.883431
H     -2.472295   -1.803077   -1.250713
H      2.592919   -1.133009   -1.816072
H      1.416035   -0.024328   -2.573882
H      1.738820   -0.954957    0.706469
H      2.099352    1.721333   -0.775453
H      3.621034    0.051457   -3.399380
H     -0.306722    2.526531    2.351910
