23

C     -2.468966    0.321464   -0.550603
C     -1.209494    0.863303    1.471097
C     -0.352333   -1.212124   -1.608278
C      3.450162   -0.072009    0.873607
C     -1.318815   -0.119417    0.336875
C     -0.089426   -0.197847   -0.508585
C      2.200915    0.244441    0.174938
O      2.110945    1.316620   -0.488505
O      1.067601   -0.564842    0.181680
H     -2.501746   -0.394183   -1.413904
H     -2.242795    1.327728   -0.984678
H     -3.393008    0.333947    0.027338
H     -0.360851    0.683615    2.141340
H     -1.266291    1.915282    1.123560
H     -2.138993    0.718803    2.096715
H     -0.717358   -0.740722   -2.539757
H      0.530364   -1.837698   -1.812830
H     -1.163575   -1.931087   -1.291996
H      3.623548   -1.135793    1.049417
H      4.295919    0.286807    0.228294
H      3.507796    0.519748    1.800796
H     -1.595836   -1.117466    0.729997
H      0.032237    0.791432   -1.036517
