49

C     -4.735627    0.998569   -1.105446
C     -5.259950    0.573523    1.228490
C      6.736702    0.356957    0.802818
C      1.830306   -0.213955    2.078111
C      0.765446   -1.229592    1.866804
C     -3.550366   -0.893730    0.143029
C      3.983821    0.043769    0.796410
C      2.652062   -0.086531   -1.599366
C     -0.226511    0.954940   -0.196026
C     -1.295241   -1.552698    0.666416
C     -4.719513   -0.048087   -0.059519
C      2.618863   -0.111749    0.818781
C     -2.234853   -0.362895    0.537330
C      1.955639   -0.176480   -0.388071
C      0.500455   -0.340680   -0.378455
C     -1.730129    0.721671   -0.297574
C      4.018296    0.069100   -1.620728
C      4.677768    0.133404   -0.408493
N      0.085969   -1.219683    0.647920
O     -1.980998    0.546905   -1.652456
O      4.733312    0.161057   -2.819269
O      6.048507    0.289575   -0.430788
H     -4.598115    0.584204   -2.149122
H     -5.844875    1.324951   -1.166505
H     -4.224720    1.933595   -0.917443
H     -6.243630    1.012685    0.957793
H     -5.457870   -0.216050    1.975029
H     -4.625828    1.390497    1.585248
H      6.229776    1.150803    1.409412
H      6.723806   -0.611162    1.336842
H      7.779374    0.740525    0.653791
H      2.511034   -0.614237    2.887461
H      1.486233    0.760423    2.453791
H      1.226075   -2.249596    2.019482
H      0.015696   -1.153056    2.706550
H     -3.851123   -1.706003    0.901892
H     -3.467241   -1.548818   -0.801649
H      4.491210    0.093073    1.748886
H      2.123206   -0.138280   -2.551558
H      0.038692    1.646246   -1.026639
H     -0.033139    1.474064    0.742559
H     -1.486564   -2.270274   -0.158232
H     -1.504096   -2.105120    1.606294
H     -5.569833   -0.761925   -0.349245
H     -2.341328    0.015416    1.600213
H      0.130010   -0.765019   -1.358774
H     -2.161381    1.697198    0.007436
H     -1.955062    1.427203   -2.079671
H      5.735735    0.275264   -2.838308
