49

C     -4.482397    1.094118   -0.214368
C     -4.901408   -0.998432    0.973018
C      4.708570   -2.811516   -0.830430
C      1.572224    2.800716    0.507019
C      0.325010    2.210456    1.128898
C     -2.975389   -0.920503   -0.615555
C      3.826759    1.720297    0.794960
C      2.864117   -0.539072   -0.477562
C      0.024610   -0.584739   -1.312700
C     -1.518458    0.807126    0.385102
C     -4.303489   -0.375562   -0.284302
C      2.528645    1.674496    0.347712
C     -1.827457   -0.633331    0.272108
C      2.026951    0.534749   -0.299484
C      0.629172    0.642075   -0.712761
C     -0.604649   -1.426384   -0.227921
C      4.636528    0.595626    0.586364
C      4.175268   -0.541787   -0.046566
N     -0.119350    1.120553    0.378134
O     -1.122303   -2.609523   -0.768041
O      5.944894    0.608819    1.023198
O      5.029223   -1.604892   -0.214592
H     -5.603038    1.332622   -0.153113
H     -4.093485    1.523948    0.722054
H     -4.175879    1.652977   -1.123403
H     -4.683239   -2.069409    0.994286
H     -4.514992   -0.501235    1.879235
H     -6.003159   -0.840474    0.920553
H      4.386669   -3.596093   -0.109268
H      3.997479   -2.727126   -1.665843
H      5.665800   -3.214400   -1.274574
H      1.989400    3.620119    1.114248
H      1.260434    3.162663   -0.511526
H      0.650636    1.873904    2.158925
H     -0.488559    2.962188    1.206284
H     -3.117658   -2.051197   -0.705672
H     -2.765758   -0.636144   -1.687104
H      4.200903    2.609820    1.294375
H      2.470206   -1.394100   -0.968552
H      0.708119   -1.165739   -1.956901
H     -0.801608   -0.259112   -1.979434
H     -1.884520    1.186376    1.386498
H     -1.982772    1.460329   -0.374014
H     -5.003652   -0.733201   -1.108987
H     -2.106824   -1.048411    1.289312
H      0.601756    1.437683   -1.518385
H      0.077913   -1.668051    0.591614
H     -1.518895   -3.109724   -0.005255
H      6.297654    1.428494    1.486035
