49

C     -2.628684   -2.662384   -3.087596
C     -3.781688   -2.277284   -0.951669
C      4.565114    3.309422   -0.825947
C     -0.827594    1.486766    2.567243
C     -1.400922    0.378381    1.768327
C     -1.336940   -3.006859   -0.969749
C      0.562503    3.500446    2.003531
C      2.245971    1.997261    0.496747
C      1.585646   -0.721388   -0.140340
C     -1.017605   -0.544500   -0.416941
C     -2.668690   -2.990209   -1.606157
C      0.311483    2.167613    1.892812
C     -0.489907   -1.795345   -1.032103
C      1.186235    1.405567    1.113406
C      0.878793   -0.020332    1.011089
C      0.859441   -2.058361   -0.334482
C      1.652790    4.088862    1.364980
C      2.520965    3.356427    0.595989
N     -0.508502   -0.319163    0.912302
O      0.683708   -2.609109    0.916891
O      1.883981    5.479628    1.516032
O      3.605258    3.928089   -0.045223
H     -1.960432   -1.797995   -3.288585
H     -3.644870   -2.348365   -3.368681
H     -2.329678   -3.549098   -3.670832
H     -3.700306   -2.166684    0.151697
H     -4.021591   -1.302441   -1.412925
H     -4.755365   -2.865625   -1.104568
H      4.347512    3.410880   -1.930067
H      5.517333    3.896074   -0.702765
H      4.732099    2.247889   -0.564691
H     -0.421210    1.052116    3.531738
H     -1.570155    2.227599    2.899184
H     -2.196139    0.837507    1.106681
H     -1.939382   -0.356285    2.398291
H     -1.505632   -3.331690    0.108310
H     -0.766581   -3.868923   -1.444522
H     -0.095794    4.111317    2.596062
H      2.944301    1.407877   -0.120383
H      1.566004   -0.120435   -1.078396
H      2.620081   -0.966578    0.119110
H     -2.098949   -0.568683   -0.351042
H     -0.765350    0.307903   -1.104108
H     -2.993909   -4.097075   -1.610873
H     -0.184055   -1.625824   -2.113451
H      1.264977   -0.534558    1.939417
H      1.491902   -2.724782   -0.942248
H      1.433706   -3.175325    1.201896
H      1.150127    6.010932    2.006610
