49

C     -5.062303    0.274898   -1.065860
C     -4.658972    0.717784    1.343244
C      6.680551    1.441466   -0.073141
C      1.532688    2.099157   -0.369067
C      0.262270    2.014176    0.379391
C     -3.442429   -1.154772    0.146134
C      3.842976    1.160618   -0.037897
C      2.766742   -1.256491    0.681551
C      0.129775   -1.031369   -0.971951
C     -1.694821    0.594224    0.371701
C     -4.640112   -0.302086    0.270497
C      2.480602    1.022424   -0.019952
C     -2.196241   -0.537726   -0.417162
C      1.954617   -0.185913    0.340006
C      0.503331   -0.392130    0.379292
C     -1.216781   -1.656808   -0.709227
C      4.135589   -1.119389    0.663997
C      4.669428    0.088082    0.304555
N     -0.296385    0.724519    0.542209
O     -1.615941   -2.459364   -1.746516
O      4.938179   -2.201583    1.008921
O      6.052974    0.226828    0.286817
H     -6.167074    0.343230   -1.133832
H     -4.604368    1.280161   -1.189398
H     -4.692698   -0.371858   -1.898905
H     -4.287252    0.271850    2.306834
H     -5.752630    0.939008    1.582881
H     -4.199222    1.664038    1.082612
H      6.260890    1.793253   -1.048490
H      6.520074    2.224510    0.692280
H      7.747304    1.217421   -0.254827
H      2.017463    3.090367   -0.142653
H      1.331919    2.062021   -1.458719
H      0.434769    2.455531    1.404895
H     -0.487540    2.680709   -0.096799
H     -3.195299   -1.612967    1.140831
H     -3.732869   -2.042027   -0.485638
H      4.273176    2.111735   -0.320851
H      2.342462   -2.226686    0.970437
H      0.011193   -0.209981   -1.722903
H      0.894339   -1.739976   -1.298915
H     -2.156243    1.569514    0.012635
H     -2.130406    0.496829    1.412487
H     -5.487428   -1.030107    0.542528
H     -2.449660   -0.131416   -1.458396
H      0.284839   -1.141875    1.167917
H     -1.085850   -2.297854    0.211574
H     -1.339759   -2.008206   -2.595533
H      4.524134   -3.081465    1.270407
