42

C     -1.129743   -1.734626   -2.995842
C     -4.111336    2.174644   -0.173630
C     -4.602427    0.908781   -0.383800
C     -2.721446    2.286388   -0.055597
C     -3.819992   -0.220170   -0.481374
C     -1.920472    1.167377   -0.150183
C      3.449542   -0.257142    2.494462
C      2.340080   -0.779588    1.876637
C      2.432371    0.947459    0.264314
C      5.246461    1.430222    2.664088
C     -2.350707   -2.535743   -0.418615
C      4.091139    0.878673    2.028080
C     -2.432900   -0.075097   -0.358882
C      1.810991   -0.201890    0.765132
C      3.546892    1.458749    0.898587
C     -0.530818   -1.276849    0.601426
C      0.485338   -0.697009   -1.340137
C     -1.566343   -1.253156   -0.458513
C      4.199253    2.696030    0.344793
F      3.515907    3.122786   -0.776418
F      4.157864    3.677569    1.330085
F      5.505273    2.394505    0.011243
N      6.198762    1.895063    3.170199
N     -0.771966   -1.260816   -1.673859
N      0.657581   -0.696475    0.069321
O     -1.488624   -3.629713   -0.418510
O     -0.665167   -1.726600    1.767259
O      1.373187   -0.240492   -2.139320
H     -1.871581   -1.061724   -3.468667
H     -0.228400   -1.820334   -3.623239
H     -1.618765   -2.733610   -2.847610
H     -4.723101    3.060338   -0.097344
H     -5.698345    0.836897   -0.474003
H     -2.254861    3.246880    0.110584
H     -4.277253   -1.194513   -0.648699
H     -0.843310    1.277465   -0.055246
H      3.889278   -0.705841    3.387701
H      1.854573   -1.680907    2.269612
H      2.018342    1.403717   -0.610339
H     -2.989338   -2.608106   -1.344088
H     -3.007876   -2.605093    0.476920
H     -1.148063   -3.868048    0.463473
