45

C      2.762845    3.243801    0.248300
C     -2.641827    1.348488   -2.313586
C      4.759676   -1.952049   -0.241871
C      0.080348   -3.806629    0.467802
C     -1.967581    1.280147    1.260445
C     -2.525074    1.987541    0.026968
C      1.909615   -1.596571    0.230917
C     -3.534342   -0.740823   -0.246544
C      3.222099    1.867106    0.122432
C     -1.388282    0.008556    0.811354
C     -2.159989   -0.203208   -0.512022
C      2.804973   -0.564082    0.113901
C      0.569999   -1.391314    0.457631
C      2.315278    0.738739    0.231204
C      0.055477   -0.097445    0.579655
C      0.946356    0.958656    0.461818
N     -2.111356    1.118359   -1.028698
O     -3.471344   -2.037683    0.263758
O      4.441386    1.628911   -0.087727
O      0.529440    2.208813    0.559395
O      4.158301   -0.712025   -0.112064
O     -0.311222   -2.478241    0.570226
H      2.324032    3.467140    1.265353
H      3.630464    3.979885    0.170714
H      2.052531    3.589595   -0.521877
H     -3.572467    1.948154   -2.340325
H     -1.894667    1.973693   -2.882390
H     -2.712886    0.406698   -2.887981
H      5.826322   -1.940167    0.156037
H      4.242434   -2.706984    0.381282
H      4.818326   -2.298990   -1.315255
H      0.820892   -4.013035   -0.307067
H     -0.835395   -4.397512    0.168529
H      0.485709   -4.151285    1.445398
H     -1.406495    1.911336    1.937938
H     -2.906624    1.013609    1.864361
H     -2.162564    3.032543   -0.067783
H     -3.642845    2.095785    0.079570
H      2.280302   -2.613708    0.136029
H     -4.087248   -0.849349   -1.222574
H     -4.157933   -0.140933    0.410521
H     -1.711652   -0.853373    1.439359
H     -1.617035   -0.941028   -1.134969
H     -4.310043   -2.314557    0.706311
H      0.092063    2.993437    0.655529
