54

C      5.067274   -0.225784    1.489987
C      4.867745    1.484655   -0.228332
C      4.921549   -0.908785   -0.910356
C     -2.523483   -2.775443    1.238086
C     -2.868059   -2.883241   -0.233766
C     -1.349347   -1.856419    1.475820
C     -2.092971    2.751129    0.950547
C     -3.299297    3.210785    0.480598
C     -3.109814   -1.494057   -0.781306
C     -1.236645   -0.428767   -2.012729
C      0.024981    0.385538   -1.913815
C     -0.324941    1.063931    1.121917
C     -3.580722    1.177813   -0.716032
C     -1.621091    1.511591    0.596175
C     -4.052143    2.421946   -0.359047
C     -0.840287   -1.220453    0.233650
C     -2.349793    0.724596   -0.228335
C      0.206468   -0.190097    0.504040
C      2.225168    0.220592   -0.850757
C      4.450241    0.076949    0.127895
C     -1.886600   -0.615370   -0.639026
N      0.814436    0.140684   -0.762657
O     -5.271572    2.915110   -0.819649
O      2.803146    0.507407   -1.939979
O      3.063270   -0.007534    0.239219
H      5.299839    0.728092    2.030936
H      4.367109   -0.789608    2.141615
H      6.014169   -0.777438    1.407970
H      5.907106    1.634004    0.072676
H      4.226678    2.180641    0.362719
H      4.769938    1.656771   -1.309433
H      5.508944   -0.339088   -1.683861
H      4.061738   -1.387830   -1.404939
H      5.606451   -1.659822   -0.449144
H     -3.400918   -2.362101    1.754990
H     -2.354927   -3.801840    1.622964
H     -2.134471   -3.453988   -0.812776
H     -3.835504   -3.424302   -0.289353
H     -1.577361   -1.144331    2.297368
H     -0.520718   -2.510216    1.879126
H     -1.542033    3.415458    1.609178
H     -3.675335    4.187293    0.757307
H     -3.989182   -1.103215   -0.221445
H     -3.402938   -1.586376   -1.844078
H     -0.949563   -1.444251   -2.353077
H     -1.955330   -0.023104   -2.738953
H     -0.307709    1.464231   -1.868869
H      0.624993    0.317772   -2.843262
H     -0.370115    0.995914    2.245897
H      0.396795    1.915395    0.942622
H     -4.167071    0.556592   -1.375465
H     -0.341862   -2.032788   -0.373898
H      0.940724   -0.637102    1.215668
H     -5.236959    3.438458   -1.688247
