62

C     -6.757017    0.421525   -1.084203
C     -2.827297   -0.692308    1.844759
C     -1.303174    1.957217   -1.905883
C      2.295232   -5.917377    2.002484
C      6.126128    4.844470   -0.715118
C     -5.468456    0.016651   -1.110035
C      1.497215   -3.417866   -1.328831
C      0.992494   -2.162839   -1.125092
C      1.764187   -4.246309   -0.272302
C      1.875209    1.004751    1.542246
C      1.818205    1.117822   -0.829494
C      2.920692    1.908575    1.573941
C      2.845088    2.003285   -0.765671
C     -4.358943    0.986957   -1.048284
C      1.015512   -2.548491    1.189071
C     -2.462008    1.718266    0.216263
C     -1.958216   -0.936530   -0.493651
C     -3.126590   -0.550288    0.370239
C     -1.221258    1.355122   -0.505018
C      1.310341    0.597064    0.347579
C      3.430133    2.430085    0.404949
C      0.744109   -1.709653    0.139213
C      1.520404   -3.807328    1.009125
C      0.203185   -0.363002    0.382331
C      4.542556    3.394115    0.406558
N     -3.549318    0.770358    0.094954
N     -0.880000   -0.020641   -0.513194
O      5.065945    3.773032    1.486376
O      1.780330   -4.624139    2.111606
O      5.054112    3.918049   -0.756847
H     -7.571704   -0.256938   -1.127349
H     -6.950502    1.476903   -1.016884
H     -2.191537   -1.592894    2.039064
H     -3.790819   -0.902631    2.356461
H     -2.428022    0.217915    2.299581
H     -1.446742    1.134370   -2.649752
H     -2.089558    2.730313   -1.977358
H     -0.355455    2.456413   -2.194445
H      2.748095   -6.244169    2.975663
H      3.093559   -6.019547    1.224801
H      1.491378   -6.624392    1.769369
H      5.824911    5.810817   -1.166678
H      7.033850    4.449185   -1.208426
H      6.423917    5.078906    0.341844
H     -5.329572   -1.050814   -1.190603
H      1.689210   -3.765640   -2.324573
H      0.793497   -1.538035   -1.985092
H      2.168221   -5.253710   -0.420071
H      1.534485    0.643795    2.502966
H      1.348359    0.774199   -1.737345
H      3.355328    2.219748    2.529067
H      3.231556    2.401650   -1.693541
H     -4.802865    2.001066   -1.103664
H     -3.777712    0.845919   -2.010339
H      0.815698   -2.182311    2.194759
H     -2.866743    2.680223   -0.217958
H     -2.286617    1.947629    1.278549
H     -1.626405   -1.936873   -0.173601
H     -2.361443   -1.073534   -1.537381
H     -3.933412   -1.268623    0.152244
H     -0.368100    1.907286   -0.009092
H     -0.263655   -0.286796    1.411712
