58

C     -8.124586   -1.162032   -1.625236
C     -6.211983   -1.605732    1.551083
C      0.131556    2.515090    0.009600
C     -7.230967   -1.635409    0.635385
C     -4.978032   -1.080611    1.232466
C     -0.932151    1.799041    0.818252
C      1.152841    1.519372   -0.445029
C      6.505739   -1.206235   -1.100724
C      7.819778    0.492149   -0.089924
C      7.493110   -1.509416   -1.994931
C      8.828123    0.202589   -0.982117
C     -0.192685   -0.421016    0.085050
C     -3.459536    0.011534   -0.461433
C      2.340674   -0.327842    2.253147
C      4.487715    0.973743    2.361066
C     -7.021027   -1.131080   -0.629790
C      6.647733   -0.223295   -0.154433
C     -4.747444   -0.577212   -0.009692
C      8.661332   -0.789883   -1.923904
C      3.693947   -0.003914    1.801224
C     -1.327982    0.551889    0.056411
C      1.154917    0.253919    0.337112
C     -5.774507   -0.604657   -0.939827
C      5.587418    0.090727    0.793927
C     -5.598658   -0.086313   -2.279327
F      9.645270   -1.076558   -2.798848
N      4.391135   -0.552775    0.819158
O     -5.194633   -0.845115   -3.180816
O     -5.880633    1.235806   -2.534695
O     -2.498056   -0.007897    0.540838
O      1.329304    0.349092    1.667915
O      5.624260    1.007361    1.732157
H     -7.701678   -1.137292   -2.658796
H     -8.827494   -1.979824   -1.461466
H     -8.677138   -0.190446   -1.511686
H     -6.387660   -2.010043    2.558038
H      0.570354    3.367224    0.567227
H     -0.412956    2.980855   -0.856861
H     -8.215030   -2.041088    0.851287
H     -4.155638   -1.047955    1.946066
H     -1.795654    2.517460    0.879433
H     -0.633529    1.603238    1.854330
H      2.143747    2.007233   -0.535010
H      0.875189    1.242394   -1.506617
H      5.557894   -1.745552   -1.111802
H      7.947062    1.274502    0.654965
H      7.310975   -2.291654   -2.707583
H      9.774052    0.751966   -0.959443
H     -0.128813   -0.968031   -0.884956
H     -0.341407   -1.165742    0.902758
H     -3.131413   -0.552158   -1.342590
H     -3.670202    1.087426   -0.671721
H      2.186342   -1.429083    2.046176
H      2.255857   -0.235271    3.352886
H      4.263804    1.643543    3.193228
H     -1.460813    0.871010   -1.006388
H      1.929750   -0.415042   -0.091134
H     -5.597577    1.707015   -3.387360
