80

C     -6.206238    0.524064    0.164654
C     -5.579347   -0.171751   -0.990972
C     -7.458382   -0.155514    0.709475
C     -5.063506   -1.572457   -0.622154
C     13.081551    0.954110   -0.161340
C     12.611113   -0.143328   -1.083065
C      7.371402   -0.436334    1.110763
C     -1.645258   -0.419947    0.548819
C      6.679636   -1.738220    1.048476
C     -1.566717    1.119308    0.354172
C      5.717611   -1.484262   -1.039789
C      0.535184    2.360046    0.725470
C      4.424219   -0.977100   -0.460312
C      1.011078    3.029970   -0.572256
C      2.682261    0.471555   -0.837536
C      2.215709    1.458171   -1.847789
C    -10.719672    1.459354   -0.589090
C    -10.890856   -0.028866   -0.817875
C     -8.472524   -0.143493   -0.416144
C     -3.968296   -1.339056    0.446382
C     11.981163    1.069725    0.834321
C     11.669921   -0.901937   -0.220511
C      8.680359   -0.412328    0.485150
C     -9.777617   -0.744481   -0.097306
C    -11.677180   -0.777519    1.138232
N     -2.902185   -0.838349    0.072820
N    -12.036132   -0.432558   -0.039295
N    -10.241928   -0.640522    1.264328
N     11.034228   -0.002200    0.652899
O     -4.206458   -1.686039    1.766313
O     11.860516    1.961091    1.720493
O     11.483271   -2.145649   -0.271606
O      8.854389   -0.716301   -0.716024
O    -12.555103   -1.212313    2.127007
O      6.413793   -2.283789   -0.175993
O     -0.608139    1.820833    0.651573
O      3.830752   -0.149943   -1.432501
O      1.160822    2.244011   -1.641859
O      9.804537   -0.037029    1.241206
S     -8.916199    1.609111   -0.776721
H     -6.498805    1.562120   -0.084687
H     -5.502932    0.608349    1.030894
H     -6.209106   -0.247711   -1.861554
H     -4.624351    0.396705   -1.233026
H     -7.799595    0.408809    1.577245
H     -7.196619   -1.179479    0.969044
H     -4.575603   -1.986180   -1.509086
H     -5.842854   -2.208708   -0.241989
H     13.193895    1.920277   -0.706556
H     14.038350    0.691360    0.346731
H     12.093811    0.344485   -1.943855
H     13.471781   -0.767707   -1.384714
H      6.760572    0.407605    0.683765
H      7.479618   -0.177600    2.200268
H     -0.834222   -0.927807    0.030770
H     -1.549168   -0.656809    1.643911
H      5.778340   -1.748961    1.726615
H      7.366663   -2.489850    1.567445
H     -2.530263    1.436114    0.943839
H     -2.025406    1.282436   -0.723992
H      5.386390   -2.188062   -1.882136
H      6.275158   -0.686360   -1.536815
H      0.466527    3.291058    1.427539
H      1.376215    1.811896    1.238715
H      4.515156   -0.400589    0.456464
H      3.773908   -1.891648   -0.324867
H      2.025829    3.451167   -0.303619
H      0.327837    3.903005   -0.717260
H      1.961588   -0.291839   -0.529722
H      3.065104    0.963128    0.111675
H      3.117998    2.039928   -2.270453
H      1.961073    0.825406   -2.776968
H    -11.089509    1.748917    0.395613
H    -11.186736    1.996879   -1.434442
H    -10.955159   -0.272995   -1.897433
H     -8.057217   -0.621799   -1.303967
H     -9.814235   -1.796531   -0.462795
H     -9.771837   -0.503192    2.156772
H     -3.532991   -1.399735    2.460828
H    -13.450984   -1.622072    1.909385
