29

C     -2.548349   -0.783723   -1.375652
C     -2.319242    0.795132    1.312066
C     -0.048608   -0.671405   -1.248551
C      0.117395    0.697735    0.748557
C      2.113027    0.518463   -0.758262
C      1.540904   -1.267888    0.604205
C     -1.365966   -0.006909   -0.869054
C     -1.259196    0.026003    0.623027
C      2.972056    0.474111    0.461152
C      0.883388   -0.165181   -0.223484
N      2.644469   -0.522414    1.209785
O      3.973668    1.365945    0.753003
H     -2.498526   -0.759893   -2.487917
H     -2.570319   -1.827528   -1.053625
H     -3.454573   -0.215291   -1.098761
H     -1.822670    1.465051    2.068197
H     -2.915548    0.074700    1.942019
H     -3.014435    1.331063    0.660594
H     -0.186970   -1.774089   -1.244867
H      0.184293   -0.345370   -2.291284
H      0.021916    1.715958    0.352683
H      0.494381    0.646995    1.774498
H      1.927132    1.539559   -1.113234
H      2.573760   -0.148882   -1.495269
H      0.866444   -1.661059    1.377896
H      1.993046   -2.049809   -0.037044
H     -1.399134    1.008239   -1.265989
H     -1.193101   -1.040404    0.970727
H      4.290757    1.580891    1.704585
