33

C     -4.579069   -0.209131   -0.536982
C     -2.958373    1.237894    0.634559
C      4.298335   -0.585387   -0.545624
C     -0.140597    1.066488   -0.692053
C     -0.071633   -1.271607   -0.528768
C      1.190570    1.133487   -0.326009
C      1.255672   -1.209665   -0.163488
C     -2.239881   -0.198504   -1.197779
C     -3.162521   -0.139297   -0.004032
C      3.325777    0.125484    0.329922
C     -0.808229   -0.137851   -0.803480
C      1.922698   -0.003251   -0.052356
C      3.446477   -0.334426    1.749135
O      4.189009   -1.290404    1.994688
O      2.752084    0.283884    2.768238
H      5.281885   -0.076513   -0.463700
H      4.468653   -1.642240   -0.279549
H      4.008398   -0.537529   -1.612035
H     -4.825216    0.786057   -0.979009
H     -4.549907   -0.919934   -1.402757
H     -5.308786   -0.518918    0.228590
H     -3.636332    1.389780    1.485862
H     -3.061060    2.036651   -0.114775
H     -1.913129    1.229103    1.037826
H     -0.711260    1.961503   -0.905959
H     -0.572217   -2.222971   -0.609346
H      1.693421    2.110606   -0.246412
H      1.842777   -2.091224    0.054116
H     -2.376160   -1.126642   -1.783959
H     -2.413556    0.659478   -1.876774
H     -2.935831   -0.886394    0.753427
H      3.605620    1.197651    0.342144
H      2.982380    0.183823    3.746339
