48

C      4.363817    1.446291   -0.594438
C      5.119828   -0.427410    0.771473
C      4.384400    1.602440    1.894462
C     -0.758228    3.532670    0.711937
C     -4.063190   -0.005393   -0.487658
C     -3.985361   -2.305980   -0.921201
C     -5.433960   -0.008733   -0.793442
C     -5.325490   -2.326139   -1.223172
C     -0.987549   -1.359519   -1.451340
C      0.290560   -1.969307   -0.911480
C      0.008330   -0.617061    1.178651
C     -3.319810   -1.143164   -0.545607
C     -6.061240   -1.160856   -1.158725
C     -1.913669   -1.193590   -0.260169
C     -1.363502   -0.174845    0.659213
C     -1.201712    1.185493    0.133489
C      2.167434   -0.621692   -0.068715
C      4.105763    0.695393    0.695259
F     -7.402044   -1.155028   -1.456048
N      0.836230   -1.060087    0.071248
O     -1.263423    1.580248   -1.033546
O      2.849682   -1.027009   -1.038646
O     -0.934571    2.194382    1.091448
O      2.788173    0.248770    0.815621
H      3.558888    2.148744   -0.844294
H      4.457446    0.723033   -1.429341
H      5.346968    1.955149   -0.505446
H      5.218128   -0.818398   -0.277529
H      4.686266   -1.228047    1.370641
H      6.080342   -0.031713    1.150827
H      5.483432    1.725808    2.026666
H      4.037017    1.029369    2.788647
H      3.853598    2.551983    1.822856
H     -1.451158    3.850623   -0.089315
H     -0.977060    4.168246    1.607841
H      0.310087    3.759870    0.425576
H     -3.679686    0.940947   -0.203772
H     -3.396192   -3.208720   -0.966831
H     -6.017697    0.910999   -0.743245
H     -5.821002   -3.251100   -1.514397
H     -0.719729   -0.419288   -1.954528
H     -1.405073   -2.116631   -2.149941
H     -0.036660   -2.887137   -0.343211
H      1.006018   -2.218064   -1.706390
H     -0.112289   -1.439913    1.898514
H      0.446679    0.244734    1.703733
H     -1.757543   -2.202474    0.292678
H     -2.011252   -0.117897    1.561646
