33

C     -1.531231   -1.443866    1.331559
C     -1.207909    1.048867    0.637010
C      3.840097    1.598110   -0.746138
C     -2.645545    1.287770    0.350653
C      2.868621    2.531755   -1.078911
C      3.560887   -0.775923    0.082578
C      1.266614   -1.421904    0.294117
C     -2.863904   -0.911408   -0.663852
C     -1.456881   -1.179121   -0.176827
C      3.132974    0.451234   -0.355832
C      2.620687   -1.701162    0.404398
C     -0.586146    0.086808   -0.393461
C      0.797903   -0.213098   -0.141151
C      1.783748    0.743774   -0.471631
F      3.044039   -2.918194    0.852095
N     -3.212019    0.459779   -0.693055
O      1.668742    1.981346   -0.903721
H     -2.330714   -0.792042    1.813747
H     -0.597167   -1.157491    1.832137
H     -1.793289   -2.513415    1.449026
H     -1.025858    0.746581    1.656162
H     -0.657035    2.029093    0.391519
H      4.908661    1.649433   -0.763144
H     -3.311821    1.239861    1.231268
H     -2.811060    2.346334   -0.044967
H      3.129890    3.536103   -1.421306
H      4.594771   -0.987007    0.152774
H      0.616330   -2.239144    0.528840
H     -3.094935   -1.412403   -1.618186
H     -3.552734   -1.399742    0.104318
H     -1.055129   -2.045074   -0.666867
H     -0.790818    0.457245   -1.377144
H     -3.309767    0.916901   -1.596007
