52

C     -5.017417    0.518685   -0.566173
C     -4.798717   -0.511454    1.707582
C     -6.247714    1.401271    1.336634
C      6.087464   -1.553029    1.503332
C      4.955961   -2.053043    0.903986
C      6.316174   -0.191634    1.575722
C      3.995536   -1.200546    0.345929
C      5.372474    0.622369    1.028494
C      2.421913   -1.184933   -3.728388
C      2.805908   -0.482828   -2.609146
C      0.173618   -0.683119   -3.320217
C     -0.567133    0.692798   -1.416783
C      3.277690    1.139281   -0.122144
C      4.195491    0.139108    0.404034
C      0.482827    0.036128   -2.186956
C      1.106742   -1.305929   -4.114918
C     -1.146089   -0.155521   -0.338361
C      1.825619    0.138736   -1.821261
C     -0.252224   -0.646380    0.686088
C     -2.583888    1.321114    1.009220
C     -4.917365    0.770284    0.898757
I      0.529366   -2.376388   -5.818853
N     -2.360404    0.428821    0.195462
O      0.649063   -1.511779    0.480003
O     -0.313157   -0.197516    2.010500
O     -1.589601    2.026619    1.651306
O      2.096864    0.851877   -0.704222
O     -3.916002    1.640716    1.302230
H     -4.618302   -0.513359   -0.776350
H     -4.570205    1.283734   -1.197350
H     -6.101087    0.447071   -0.880319
H     -4.272117   -1.277616    1.092569
H     -4.299372   -0.345444    2.685444
H     -5.798088   -0.942619    1.945467
H     -6.989766    0.590536    1.474367
H     -6.114302    2.009070    2.254922
H     -6.641141    2.053350    0.527052
H      6.804372   -2.269977    1.921961
H      4.767715   -3.137493    0.842711
H      7.216416    0.156847    2.054098
H      3.139307   -1.673962   -0.113391
H      5.544638    1.707200    1.080403
H      3.203367   -1.662604   -4.328799
H      3.852442   -0.385621   -2.328034
H     -0.893294   -0.744896   -3.578332
H     -0.160627    1.623447   -0.931198
H     -1.384925    1.097114   -2.083713
H      3.026062    1.827130    0.781497
H      3.870825    1.910947   -0.751020
H     -1.530799   -1.089175   -0.882743
H      0.123860   -0.709700    2.754267
H     -0.757979    2.372318    1.197114
