52

C      3.987061   -0.578929    0.780764
C      5.226074    1.467391    1.210492
C      4.829128    0.772409   -1.090125
C     -6.070954    1.339360   -2.060883
C     -6.344634    1.457155   -0.724184
C     -4.880426    0.748603   -2.453396
C     -5.444543    0.992711    0.203207
C     -3.978233    0.282829   -1.505734
C     -0.488087   -1.547197    3.564624
C     -1.413311   -1.068577    2.678514
C      0.834190   -2.244115    1.708714
C      0.082359   -1.863077   -0.644731
C     -3.348175   -0.067320    0.890448
C     -4.253126    0.401032   -0.160106
C     -0.103755   -1.758771    0.838877
C      0.642398   -2.138583    3.061685
C      0.482341   -0.456697   -1.110070
C     -1.259676   -1.154219    1.318978
C      0.688371   -0.460540   -2.570573
C      1.919111    1.260404   -0.365683
C      4.197452    0.818827    0.273574
I      2.055007   -2.869845    4.440595
N      1.660089   -0.003201   -0.397064
O      1.803539   -0.099918   -3.018532
O     -0.284199   -0.841416   -3.477739
O      1.099133    2.212481   -0.998865
O     -2.183361   -0.676348    0.399073
O      3.059337    1.631836    0.332226
H      3.350099   -0.612466    1.690610
H      3.627956   -1.283656   -0.011936
H      5.002843   -0.949442    1.106590
H      5.087525    1.063558    2.253727
H      5.078129    2.564551    1.241502
H      6.251704    1.246703    0.918028
H      5.889623    0.485968   -0.960212
H      4.351018    0.000943   -1.709224
H      4.834235    1.782314   -1.568014
H     -6.764830    1.697268   -2.812820
H     -7.281026    1.921432   -0.391273
H     -4.615899    0.631553   -3.486094
H     -5.700138    1.105469    1.265061
H     -3.067180   -0.169205   -1.829857
H     -0.687251   -1.438767    4.632784
H     -2.318730   -0.595274    3.070943
H      1.712609   -2.703888    1.309804
H      0.839672   -2.603090   -0.917617
H     -0.909003   -2.053851   -1.090010
H     -3.930162   -0.774678    1.548847
H     -3.030193    0.760587    1.555828
H     -0.415363    0.168840   -0.889993
H     -0.179188   -0.519937   -4.431771
H      0.360437    1.902435   -1.618992
