43

C     -4.493368   -0.780603    0.575702
C     -4.412518    1.112414   -1.061935
C     -4.453356    1.597801    1.385471
C      5.166555    1.704880    0.439269
C      4.811501    0.986627    1.567409
C      4.309829    1.665827   -0.626254
C      3.646352    0.262692    1.618095
C      3.121145    0.927831   -0.575732
C      0.321220   -1.106637   -1.459940
C      0.371479    0.406908    0.284864
C      2.629359   -2.044044   -1.126015
C      2.775421    0.216552    0.549230
C      1.368333   -1.573753   -0.472834
C      1.530534   -0.538515    0.567828
C     -1.945846   -0.237031   -0.576450
C     -3.998174    0.625707    0.310303
N     -0.538134   -0.304041   -0.580633
O      2.270382   -3.125093   -1.966293
O     -2.582487   -0.932361   -1.409819
O     -2.582727    0.587798    0.339992
H     -4.692931   -1.338996   -0.356047
H     -3.740704   -1.365687    1.156250
H     -5.435646   -0.742927    1.178265
H     -3.571977    1.648347   -1.583504
H     -5.246340    1.837933   -0.960810
H     -4.667285    0.253381   -1.694485
H     -5.289690    2.177098    0.961332
H     -4.847960    1.009521    2.233254
H     -3.641547    2.289122    1.682075
H      6.090417    2.282172    0.391662
H      5.511560    1.032144    2.407723
H      4.578448    2.226090   -1.517445
H      3.447503   -0.272458    2.547017
H      2.528677    0.977006   -1.479878
H     -0.259661   -1.957187   -1.880611
H      0.763091   -0.462886   -2.219595
H     -0.105155    0.751232    1.220698
H      0.723847    1.299216   -0.298179
H      3.134652   -1.323283   -1.761348
H      3.267615   -2.491190   -0.339594
H      0.913419   -2.489644    0.010903
H      1.436015   -0.995529    1.594846
H      1.788151   -3.796435   -1.415872
