70

C     -7.038630   -1.256935    0.294804
C     -6.186320   -0.008699   -1.616520
C     -5.224928   -2.192581   -1.089776
C      7.823704   -5.289737   -0.790984
C      1.046399    6.835260   -0.244102
C     -4.954732    1.738813    0.707613
C     -4.708223   -0.767679    2.371016
C      5.033111   -2.215849   -1.087008
C      5.262196   -1.785126    1.290000
C     -0.595234    0.399488   -1.548132
C      5.965376   -3.237326   -0.970226
C      6.175854   -2.804365    1.342938
C     -1.798380    1.223056   -1.237162
C     -0.859202    0.452121    0.865017
C      3.557679    3.244776   -0.040878
C      4.221323    0.885292    0.028407
C      3.138640    1.897694   -0.055014
C      4.704735   -1.516466    0.040845
C      0.000693   -0.084404   -0.244867
C      6.546401   -3.542020    0.247519
C     -2.157635    0.811906    0.193228
C      1.811558    1.635910   -0.138118
C      1.301862    3.888712   -0.192450
C      2.359177   -0.751295   -0.090768
C     -5.780193   -0.923620   -0.479506
N      2.619753    4.179098   -0.110317
N      0.868933    2.623798   -0.208072
N      3.751193   -0.449929   -0.006230
N      1.376726    0.264375   -0.157898
O      2.045951   -1.972668   -0.103078
O      7.472358   -4.558732    0.355375
O     -2.934334   -0.330604    0.072151
S      0.164803    5.277130   -0.281432
Si    -4.533389   -0.090996    0.639733
H     -7.792446   -1.605985   -0.450111
H     -7.462784   -0.386765    0.797078
H     -6.803183   -2.096147    0.957216
H     -6.263417    1.045265   -1.330848
H     -5.450193   -0.083826   -2.446587
H     -7.168755   -0.305000   -2.035512
H     -5.076726   -2.082395   -2.195453
H     -5.926372   -3.062023   -0.931802
H     -4.257529   -2.417714   -0.589317
H      8.700020   -5.960884   -0.604431
H      8.178796   -4.594101   -1.598625
H      6.967554   -5.856310   -1.197673
H      1.914400    6.749224   -0.962670
H      1.470375    7.065103    0.764510
H      0.438974    7.687473   -0.596601
H     -6.048592    1.836451    0.670906
H     -4.463116    2.265053   -0.134948
H     -4.640522    2.166373    1.696704
H     -4.770920    0.044547    3.134201
H     -3.907330   -1.490859    2.627079
H     -5.671457   -1.342783    2.476444
H      4.574347   -1.969893   -2.031116
H      4.993435   -1.229556    2.153173
H      0.194391    0.977863   -2.102006
H     -0.868433   -0.433236   -2.230522
H      6.254924   -3.813078   -1.830665
H      6.641966   -3.051535    2.307994
H     -1.671526    2.299651   -1.334177
H     -2.636561    0.931304   -1.935555
H     -0.407356    1.301123    1.407919
H     -1.099292   -0.320308    1.632899
H      4.615295    3.472114    0.025495
H      4.824764    1.093372    0.963667
H      4.945348    1.116720   -0.812329
H     -0.120671   -1.187659   -0.245832
H     -2.684636    1.660025    0.662147
