34

C     -5.429557   -0.391625   -1.317781
C     -2.004839    0.054735    2.881949
C     -3.937187   -0.468079   -1.102836
C      2.480221    0.345112   -1.272309
C      2.919066   -0.378581    0.935158
C      3.851186    0.391218   -1.548645
C      4.308581   -0.341803    0.679382
C     -1.287882    0.003733    1.542201
C      2.025529   -0.034984   -0.044458
C      4.771055    0.046926   -0.569548
C     -3.488532    0.104220    0.223770
C     -2.045500    0.001959    0.342294
C      0.598323   -0.093729    0.259835
C      6.239517    0.127660   -0.841603
F      6.723731   -1.155729   -0.734719
F      6.456127    0.596969   -2.113109
F      6.853127    0.976718    0.068979
N     -0.028333   -0.045632    1.413525
O     -3.888299    1.454910    0.329279
S     -0.768386   -0.072494   -0.844663
H     -5.793059   -1.360185   -1.710300
H     -5.893340   -0.253459   -0.314010
H     -5.739873    0.437183   -1.995401
H     -2.427897   -0.941359    3.078233
H     -2.754564    0.857068    2.875843
H     -1.269213    0.301374    3.682488
H     -3.341516   -0.126471   -1.960040
H     -3.691329   -1.582663   -1.011070
H      1.762992    0.615027   -2.042229
H      2.632196   -0.682309    1.899442
H      4.189393    0.688413   -2.534192
H      5.037749   -0.615102    1.421005
H     -3.971400   -0.484701    1.036996
H     -3.088088    2.025679    0.238098
