43

C      4.383966    1.473820   -0.118955
C      5.110985   -0.704448   -0.975193
C      4.428045   -0.483526    1.348336
C     -5.510615    1.091288    1.912344
C     -4.728282    1.926488    1.154102
C     -5.142190   -0.230769    2.049193
C     -3.591822    1.464903    0.534909
C     -3.996138   -0.677252    1.419299
C     -1.051718   -1.240386   -2.035981
C      0.268336   -1.149910   -1.379299
C     -0.729548    0.309922    0.463739
C     -3.203032    0.157919    0.653941
C     -1.992928   -0.375203    0.006709
C     -2.027290   -0.178096   -1.515320
C      1.695879    0.112039    0.149036
C      4.111861    0.002102   -0.056005
N      0.371766   -0.256192   -0.271247
O     -3.292737   -0.381847   -2.022038
O      1.896811    0.901292    1.124587
O      2.836571   -0.365927   -0.477527
H      4.248866    1.954968    0.878186
H      3.669602    1.966995   -0.811211
H      5.428694    1.644670   -0.468688
H      4.667821   -1.698257   -1.190739
H      5.297471   -0.093382   -1.866768
H      6.064044   -0.923531   -0.411091
H      3.824477    0.006012    2.114442
H      4.387665   -1.583713    1.421791
H      5.502890   -0.210738    1.529426
H     -6.405496    1.454799    2.399942
H     -5.011933    2.984099    1.037266
H     -5.781388   -0.860028    2.653386
H     -2.960872    2.120006   -0.071304
H     -3.728482   -1.709448    1.539386
H     -0.948410   -1.169771   -3.137590
H     -1.529965   -2.212681   -1.796963
H      1.044285   -0.867365   -2.128096
H      0.577881   -2.162901   -1.017391
H     -0.597315    0.250833    1.550609
H     -0.813825    1.391932    0.150533
H     -1.873928   -1.453951    0.237794
H     -1.593427    0.805520   -1.792250
H     -3.306578   -1.030285   -2.785300
