48

C     -1.826659   -1.256842    0.977843
C     -0.916498   -2.248339    0.313385
C     -3.216217   -1.521005    0.430170
C      0.514918   -2.186317    0.708310
C      7.054515    0.053449   -0.434628
C      2.755793    0.452812   -0.765471
C      6.021280   -1.002533   -0.200823
C      4.151446    0.416394   -0.092161
C     -6.464684    0.720916    0.144949
C     -5.370259    1.540680    0.683563
C     -4.253340   -0.617215    0.984171
C      1.143634   -0.887220    0.414528
C     -4.092269    0.827554    0.762484
C     -4.053555    2.412110   -0.881173
N      6.816454    1.293369    0.219973
N      2.103912   -0.776061   -0.435464
N     -5.138393    2.648055   -0.248449
N     -3.445736    1.188493   -0.484459
O      0.713105    0.250662    1.050091
O     -3.512913    3.261000   -1.861657
O      4.783586   -0.664116   -0.617748
S     -5.821870   -0.973300    0.100906
H     -1.519756   -0.211568    0.828169
H     -1.786020   -1.453572    2.066777
H     -0.950134   -1.991167   -0.788541
H     -1.314264   -3.284889    0.356986
H     -3.226205   -1.542818   -0.671350
H     -3.473828   -2.562594    0.754859
H      1.048321   -2.957324    0.073891
H      0.698364   -2.517663    1.755430
H      7.155061    0.155191   -1.543497
H      8.045074   -0.341161   -0.079266
H      2.992143    0.411216   -1.865672
H      2.214652    1.363770   -0.514413
H      6.326857   -1.923531   -0.794632
H      6.008393   -1.331283    0.884480
H      4.619441    1.415231   -0.347382
H      3.966171    0.383112    0.997191
H     -7.352996    0.720659    0.808702
H     -6.825291    1.029280   -0.864470
H     -5.671464    2.006203    1.643437
H     -4.466144   -0.827224    2.052897
H     -3.474262    1.255709    1.578570
H      7.365904    1.346420    1.119582
H      7.121268    2.130808   -0.328974
H     -2.700125    0.714919   -1.030899
H      1.311849    1.035506    1.282768
H     -4.059257    4.044221   -2.217368
