56

C     -0.988246    4.995625    1.085028
C      1.494239    5.352530    0.600020
C      5.413593   -0.367804    1.152344
C      5.536600   -2.288363   -0.526267
C     -3.825298   -4.400635    0.427110
C     -5.923830   -3.204449    0.066057
C      0.281979    3.378967   -0.181111
C      3.703679   -0.672377   -0.529581
C     -0.912463    2.513992   -0.340487
C      2.957837    0.512131   -0.043511
C     -3.784531   -2.016759   -0.141826
C      0.272763    4.524483    0.469719
C      4.825539   -1.093490   -0.000969
C     -4.490710   -3.328845   -0.385231
C     -0.673776    1.144323    0.264736
C     -2.379509   -2.152180   -0.544257
C      1.589821    0.134885    0.403671
C     -1.469847   -0.994315   -0.413238
C     -1.879367    0.301190    0.092745
C     -0.190131   -0.968357   -0.732438
C      0.373704    0.369062   -0.456553
O     -1.953560   -3.233187   -0.993462
O      1.479917   -0.377087    1.503324
O     -3.094111    0.648433    0.346420
O      0.552447   -2.017343   -1.252157
O      0.722944    0.957763   -1.659194
H     -1.749588    5.016407    0.257839
H     -0.877441    6.043443    1.419775
H     -1.336055    4.313965    1.900584
H      2.431698    4.768623    0.492591
H      1.443239    5.925368    1.554931
H      1.458556    6.120533   -0.216348
H      6.308634   -0.905075    1.519012
H      5.702667    0.671620    0.850632
H      4.652128   -0.283371    1.974067
H      6.637752   -2.049082   -0.499185
H      5.319838   -3.162090    0.140396
H      5.236443   -2.542325   -1.567189
H     -4.614326   -5.070830    0.864574
H     -3.233901   -3.921277    1.230778
H     -3.186034   -5.057029   -0.215624
H     -6.010764   -2.967472    1.122148
H     -6.501320   -4.106139   -0.162295
H     -6.395652   -2.349173   -0.495710
H      1.211510    3.028535   -0.636412
H      3.299186   -1.239952   -1.385781
H     -1.288061    2.459267   -1.365199
H     -1.734166    2.976844    0.281247
H      2.933645    1.278912   -0.845195
H      3.529986    0.947564    0.800686
H     -4.319697   -1.220078   -0.700940
H     -3.893751   -1.726895    0.935179
H     -4.464682   -3.533401   -1.472966
H     -0.445248    1.190291    1.327377
H      0.772302   -2.863614   -0.760403
H      1.473417    0.538237   -2.106618
