32

C     -3.104208    1.741047    0.455832
C     -1.185766   -3.063918    1.050177
C     -2.561293    1.215701   -0.836942
C      0.838560    1.046597    0.678061
C      1.490857    2.097906    0.052498
C      0.564843   -1.381149    1.029581
C      2.269899   -0.420664   -0.523703
C     -0.625437   -1.902690    0.255153
C      1.230774   -0.240436    0.388809
C      2.510586    1.904093   -0.842232
C      2.911541    0.618219   -1.139250
C     -1.678603   -0.912750    0.044853
Cl     3.306383    3.249815   -1.608302
N      3.977846    0.400192   -2.074173
O     -2.855279   -1.096778    0.510710
O     -1.513106    0.280417   -0.654777
H     -2.315079    2.054473    1.165238
H     -3.717546    2.652076    0.202612
H     -3.813271    1.004665    0.876584
H     -0.646576   -4.010297    0.810088
H     -1.194611   -2.861632    2.134693
H     -2.262058   -3.170052    0.733150
H     -2.091841    2.081994   -1.388549
H     -3.377954    0.841355   -1.453273
H      0.035011    1.285540    1.379911
H      1.177549    3.118737    0.283853
H      1.302335   -2.215567    1.074777
H      0.301477   -1.174750    2.102250
H      2.584629   -1.443834   -0.756216
H     -0.220595   -2.336771   -0.683267
H      3.718968    0.013438   -3.022176
H      4.941964    0.625024   -1.791875
