50

C      1.848757   -4.106017   -0.108309
C     -5.990220    2.816760    0.287784
C      1.657501   -2.701974   -0.637854
C     -4.946400   -1.247796   -0.200180
C      6.284901    1.816555   -0.875247
C     -3.639346   -1.614562   -0.177524
C      5.423911    0.885365   -0.445905
C     -5.307806    0.065582   -0.046233
C     -0.649199    1.087047    0.763512
C     -1.952634    1.710792    0.321556
C      3.203548    0.495489    0.797868
C      1.316464   -1.815654    0.541108
C      2.157854    0.287249   -0.271862
C      6.039098    3.122713   -0.644492
C     -1.216936   -1.173080    0.088548
C     -2.621846   -0.672230   -0.003906
C     -0.245408   -0.075025   -0.158127
C      4.302325    1.288793    0.224041
C     -2.993505    0.635100    0.142168
C     -4.342688    1.028701    0.125364
N      1.086654   -0.474674    0.202159
O     -4.683269    2.343165    0.276038
S      4.464071    3.087245    0.253912
H      2.060901   -4.772388   -0.961293
H      0.956651   -4.397504    0.488599
H      2.697184   -4.132326    0.575813
H     -6.381570    2.711722    1.329916
H     -6.638359    2.221830   -0.368556
H     -6.058874    3.889235    0.007352
H      0.993949   -2.629823   -1.490299
H      2.685052   -2.387056   -1.005900
H     -5.693835   -2.035588   -0.347318
H      7.221828    1.534557   -1.440297
H     -3.313710   -2.652371   -0.300508
H      5.579738   -0.221197   -0.603121
H     -6.381570    0.277562   -0.060534
H      0.110019    1.897701    0.699713
H     -0.728512    0.759465    1.808840
H     -2.280912    2.402444    1.117245
H     -1.826694    2.285861   -0.622186
H      3.622140   -0.445649    1.149297
H      2.771672    1.053167    1.648565
H      2.261480   -1.841967    1.170731
H      0.572988   -2.289073    1.178755
H      2.698917   -0.124346   -1.152677
H      1.848908    1.325455   -0.575862
H      6.582341    4.017018   -0.894193
H     -1.116192   -2.061626   -0.549622
H     -1.092707   -1.454802    1.190262
H     -0.346659    0.280157   -1.181436
