56

C     -0.178777    4.999730    1.017209
C      0.817830    3.580847   -0.864038
C     -4.790977   -3.451743    0.532238
C     -6.281921   -1.404646    0.817830
C      5.878334   -0.047506    1.645011
C      5.746186   -0.983564   -0.665240
C     -1.096297    2.803768    0.512619
C     -4.128061   -1.296491   -0.384996
C     -1.401172    1.479003   -0.007999
C     -2.910080   -1.960333   -0.880128
C      3.700534   -0.385754    0.611344
C     -0.175147    3.682131    0.208847
C     -5.022661   -2.005220    0.286428
C      5.083395   -0.947906    0.697393
C     -0.368120    0.724892   -0.707531
C      2.819051   -1.165013   -0.278523
C     -1.666136   -1.374449   -0.328183
C      1.447658   -0.746977   -0.469186
C      0.820396    0.402385    0.155701
C      0.554871   -1.342958   -1.229648
C     -0.762378   -0.640238   -1.193069
O      3.245911   -2.179067   -0.866534
O     -1.427206   -1.521418    0.844923
O      1.140457    1.027269    1.174851
O      0.729425   -2.497845   -2.012141
O     -1.228499   -0.593269   -2.508036
H      0.584067    4.852682    1.797371
H     -1.192507    5.169076    1.385347
H      0.146030    5.806291    0.344389
H      1.364552    4.586098   -0.921174
H      0.311082    3.527662   -1.878514
H      1.619810    2.862560   -0.762979
H     -5.611807   -3.897645    1.154635
H     -4.740057   -4.048931   -0.402061
H     -3.827767   -3.590985    1.099085
H     -6.569460   -1.846595    1.790014
H     -6.101947   -0.313672    0.946928
H     -7.113597   -1.477641    0.076288
H      5.593795    0.989308    1.391373
H      6.958798   -0.242498    1.576062
H      5.470905   -0.263573    2.661119
H      6.802233   -0.612651   -0.569178
H      5.253558   -0.322864   -1.397696
H      5.835952   -2.016059   -1.045839
H     -1.799813    3.149570    1.347751
H     -4.327671   -0.234106   -0.549211
H     -2.385547    1.516430   -0.558201
H     -1.679420    0.849747    0.914745
H     -2.990344   -3.050336   -0.674307
H     -2.952832   -1.889380   -1.991483
H      3.266180   -0.402766    1.641205
H      3.678013    0.671248    0.285864
H      5.048354   -1.951667    1.121934
H      0.018620    1.265853   -1.582990
H      0.628236   -3.434439   -1.599055
H     -1.834032    0.193653   -2.550052
