69

C      2.628396   -2.472619   -3.553566
C      3.122663    0.692396    1.825448
C      5.490846    1.205254    1.459599
C      4.808693   -1.100967    1.936417
C     -1.308259   -2.889165    4.159238
C     -6.739469    3.020748    1.902408
C     -5.995231    3.950704    1.205514
C     -6.592159    1.674380    1.620914
C     -5.135263    3.495915    0.257035
C     -5.718664    1.221721    0.658504
C     -2.150665    1.076299    1.481049
C     -2.511488   -1.060381    0.570476
C     -1.753385    0.491921    2.666077
C     -2.118078   -1.657866    1.744975
C      1.708718   -0.572610   -2.238032
C      0.589330   -1.444023   -1.714089
C      5.215369   -0.897838   -2.329219
C     -1.562292    0.768821   -4.650839
C      2.939957   -1.393056   -2.503117
C     -2.543229    0.308431    0.393455
C     -4.968129    2.138659   -0.046147
C     -1.727842   -0.875036    2.824664
C      5.277182   -0.574195   -0.900205
C     -2.961597    0.894289   -0.863376
C     -2.338735    0.730195   -2.080837
C     -4.034352    1.708005   -1.070928
C     -1.210234    0.013458   -2.467094
C     -3.082372    1.471081   -2.991061
C      4.411546    0.176356    1.208021
N     -0.861338    0.060805   -3.751691
N     -2.649920    1.455736   -4.263060
O      6.380268   -0.750745   -0.316359
O     -1.331839   -1.485210    4.006926
O     -0.561185   -0.681973   -1.468343
O      4.023346   -0.704416   -2.961709
O     -4.079177    2.032215   -2.338604
O      4.223055   -0.095726   -0.160758
H      2.110724   -3.311512   -3.068993
H      2.105547   -2.056855   -4.415988
H      3.618756   -2.839094   -3.892749
H      2.464257   -0.182160    2.070227
H      3.306715    1.200010    2.794174
H      2.613094    1.407694    1.144484
H      5.298768    1.609618    2.484378
H      5.428484    2.067466    0.777536
H      6.498457    0.771962    1.477873
H      5.928465   -1.124383    1.945943
H      4.408532   -2.011175    1.418627
H      4.454446   -1.009224    2.974037
H     -0.618662   -3.280811    3.385748
H     -2.323844   -3.255648    3.900078
H     -1.073368   -3.213050    5.169690
H     -7.416917    3.395506    2.650779
H     -6.060561    5.020016    1.375161
H     -7.177162    0.963564    2.170344
H     -4.535019    4.206594   -0.308784
H     -5.588371    0.182801    0.423597
H     -2.179522    2.153373    1.332578
H     -2.811720   -1.688546   -0.257828
H     -1.450782    1.129370    3.501680
H     -2.097818   -2.729943    1.869664
H      1.397247   -0.006549   -3.144179
H      1.901767    0.197361   -1.471358
H      0.396205   -2.269515   -2.448546
H      0.978189   -1.896683   -0.763776
H      5.987095   -0.230948   -2.822143
H      5.593449   -1.946609   -2.479374
H     -1.248246    0.788696   -5.709214
H      3.207323   -1.972888   -1.602419
