25

C      1.001620   -1.681108    1.316901
C      4.129147    0.702368   -0.296075
C     -1.068597   -0.596442   -0.500160
C     -1.544625    0.742545    1.380344
C     -2.380142   -0.422215   -0.963336
C     -2.854254    0.923450    0.928983
C      0.715321   -0.202583    1.142815
C     -0.645467   -0.016191    0.671302
C     -3.249561    0.338270   -0.234639
C      1.748261    0.328681    0.215691
O     -4.557075    0.510727   -0.698378
O      1.422687    0.880876   -0.866681
O      3.082023    0.230112    0.517139
H      0.138402   -2.218422    1.730833
H      1.871083   -1.874992    1.958236
H      1.244118   -2.092519    0.302814
H      3.795091    0.921353   -1.341995
H      4.661400    1.567381    0.142408
H      4.864726   -0.123847   -0.391639
H     -0.436118   -1.211292   -1.129249
H     -1.295133    1.233930    2.310772
H     -2.712324   -0.879553   -1.885869
H     -3.569147    1.529579    1.497373
H      0.866451    0.347176    2.110901
H     -5.227889    1.062716   -0.191974
