25

C     -0.838663   -2.462551    0.854644
C     -3.111524    1.542574   -0.853544
C      1.018461    0.508059    1.497085
C      1.115393   -0.479748   -0.615564
C      2.199305    1.165531    1.285023
C      2.305785    0.170438   -0.854684
C     -0.822199   -0.974523    0.907059
C      0.430876   -0.331789    0.571472
C      2.866233    1.006720    0.099020
C     -1.874909   -0.424512   -0.021332
O      4.054433    1.646418   -0.158342
O     -2.519396   -1.168926   -0.801165
O     -2.145542    0.937306   -0.021313
H     -0.447182   -2.868138    1.800280
H     -1.898014   -2.793527    0.776132
H     -0.298172   -2.910421    0.014696
H     -3.081415    2.639814   -0.617357
H     -4.112284    1.173330   -0.574202
H     -2.952177    1.342636   -1.917199
H      0.541092    0.685295    2.473852
H      0.677386   -1.130732   -1.355698
H      2.655032    1.828758    2.026755
H      2.829510    0.040295   -1.796964
H     -1.129578   -0.667485    1.924401
H      4.537551    1.525179   -1.029956
