41

C      6.203564    0.319433   -1.501040
C      4.581169   -0.940242   -0.095142
C      4.301784    1.398386   -0.278544
C      3.477089   -0.989446    0.726988
C      3.188288    1.341781    0.551826
C     -3.379745   -1.765381    0.108329
C     -1.931213   -1.517587    0.311349
C     -4.198406    0.486728    0.635280
C     -2.066287    0.426918   -1.326470
C      1.570324    0.037801    1.966023
C      5.009331    0.263134   -0.611174
C      2.743690    0.147756    1.078286
C     -4.121905   -0.576421   -0.429631
C     -3.414284   -0.109030   -1.670118
C     -0.247700    0.260638    0.298160
F     -4.180864    0.771723   -2.370940
N     -4.904229    1.663349    0.178371
N     -1.434941   -0.294254   -0.241369
O      0.254835    1.347147   -0.142016
O      0.402894   -0.362026    1.321314
H      7.059131    0.664700   -0.902487
H      6.384692   -0.678339   -1.963933
H      5.995012    1.102650   -2.256278
H      5.139453   -1.833079   -0.358035
H      4.651494    2.334221   -0.692188
H      3.122014   -1.930564    1.145486
H      2.655579    2.271936    0.792572
H     -3.577119   -2.649028   -0.561832
H     -3.840152   -2.030494    1.085689
H     -1.657817   -1.540699    1.391412
H     -1.373769   -2.376226   -0.166494
H     -3.194414    0.779436    0.948123
H     -4.726778    0.020271    1.506585
H     -1.438348    0.430241   -2.254171
H     -2.109308    1.503683   -1.003927
H      1.440612    0.969600    2.573192
H      1.813097   -0.760124    2.726810
H     -5.158246   -0.930956   -0.674962
H     -3.248323   -1.031174   -2.300924
H     -4.214321    2.347394   -0.153355
H     -5.575885    1.426144   -0.594442
