64

C      1.673614   -0.008836    2.871317
C      4.738179    0.129644    0.905392
C     -2.471060    4.178655   -0.224416
C     -6.547326   -3.422285   -0.550644
C     -6.850824   -2.593338   -1.614811
C      4.080018    2.224377   -1.145327
C     -5.238413   -3.638202   -0.156508
C     -5.800821   -1.987158   -2.271969
C      4.392584    3.590000   -1.717332
C     -3.234661   -0.414183    1.042437
C     -1.615989    0.113636   -0.576111
C     -3.530225    0.926377    1.171615
C     -1.909534    1.456147   -0.449076
C      3.941854    2.326632    0.345414
C      2.394670    0.508491    0.530679
C      1.347896   -4.618915    0.608879
C      1.898376   -0.554803    1.483274
C     -2.260946   -0.860461    0.157182
C     -2.875757    1.872423    0.432472
C     -4.184444   -3.034345   -0.810384
C     -4.494600   -2.206503   -1.873844
C      5.651760    4.137357   -1.169189
C     -1.938197   -2.269843    0.010885
C     -0.724637   -2.867807    0.278632
C     -2.788194   -3.241471   -0.418614
C      0.496794   -2.425699    0.729547
C     -0.907679   -4.218403   -0.012287
F     -3.474660   -1.596894   -2.538793
N      1.504346   -3.298931    0.886336
N      0.151287   -5.034872    0.170068
N      3.643154    1.065395    0.974908
O      5.668827    4.717773   -0.067941
O      6.823607    4.005676   -1.882736
O     -3.169836    3.241609    0.556728
O      0.656534   -1.085827    1.011123
O     -2.142314   -4.378032   -0.418327
H      0.610835   -0.177202    3.209757
H      1.871225    1.091434    2.920903
H      2.332411   -0.540586    3.570951
H      5.670254    0.727727    0.767339
H      4.833323   -0.367950    1.891255
H      4.660798   -0.568970    0.061944
H     -2.681198    5.201649    0.186896
H     -1.383450    4.021636   -0.130386
H     -2.820294    4.177179   -1.288177
H     -7.389442   -3.892355   -0.043223
H     -7.875085   -2.419138   -1.930103
H      3.114532    1.897880   -1.616543
H      4.853624    1.538100   -1.479892
H     -5.012162   -4.298948    0.690114
H     -6.035755   -1.341803   -3.100460
H      4.499144    3.548516   -2.824525
H      3.555501    4.308347   -1.535260
H     -3.748794   -1.165074    1.623708
H     -0.856604   -0.218819   -1.268888
H     -4.285942    1.261295    1.860220
H     -1.370086    2.189276   -1.053218
H      4.913012    2.669409    0.756668
H      3.128680    3.038382    0.584239
H      2.403622    0.097628   -0.476926
H      1.645777    1.332660    0.561479
H      2.128245   -5.355805    0.719405
H      2.600119   -1.403555    1.555495
H      7.734328    3.911704   -1.418374
