20

C     -1.543119   -0.466942   -1.181142
C      3.288481    0.521233    0.043722
C     -1.499846    0.409345    1.112129
C     -0.813141    0.448316   -0.232354
C      1.228827   -0.814548    0.096480
N      0.576273    0.221324   -0.191109
O     -2.861147    0.653600    0.875221
O      0.672339   -2.034053    0.458183
O      2.620478   -0.741848    0.051222
H     -2.192725    0.105667   -1.905183
H     -2.263289   -1.132411   -0.641010
H     -0.862762   -1.061874   -1.825031
H      2.981083    1.113218   -0.836516
H      4.377576    0.311829   -0.045501
H      3.136655    1.075070    0.975516
H     -1.155559    1.218901    1.785134
H     -1.440716   -0.589148    1.573254
H     -0.975997    1.498584   -0.619950
H     -2.986508    1.455812    0.295288
H     -0.286905   -2.192076    0.211648
