20

C     -1.222636    0.931430    1.077213
C      3.034965   -0.740944    0.368047
C     -1.649094   -1.138139   -0.165463
C     -0.926955    0.206206   -0.229724
C      1.389144    0.615180   -0.812568
N      0.472345   -0.070772   -0.257368
O     -3.024004   -0.956902   -0.135247
O      1.104852    1.784750   -1.496277
O      2.688045    0.129355   -0.696618
H     -1.758244    1.892439    0.902947
H     -1.790076    0.289077    1.784383
H     -0.283542    1.211782    1.612338
H      2.441192   -1.672587    0.357392
H      4.119097   -0.902386    0.381535
H      2.712029   -0.201012    1.306479
H     -1.371540   -1.705358    0.753440
H     -1.399548   -1.780155   -1.019291
H     -1.304699    0.750229   -1.096762
H     -3.388482   -0.773333   -1.041441
H      0.157153    2.131139   -1.593017
