53

C     -5.438596   -0.470655   -2.312134
C     -4.689166   -0.400248   -1.002951
C      4.671588    5.246856    1.129320
C      3.338827   -1.001635   -0.362410
C      2.904008   -2.251865   -0.706757
C      4.149933    4.009999    0.883232
C     -2.745157   -2.441353    0.938595
C      1.101281   -0.294745    0.040172
C     -1.566940   -0.598498    0.056933
C      4.429838    7.474107    2.058452
C      2.641084    5.805408    2.190848
C     -1.174828   -4.239893    0.585000
C      3.926175    6.224042    1.808527
C     -1.238102   -2.774772    0.730455
C      2.429482    0.006556    0.020605
C     -2.985224   -1.163829    0.227250
C      0.664449   -1.582017   -0.315243
C      1.556051   -2.557854   -0.688433
C      2.888871    3.638516    1.271453
C      2.305379    2.328415    1.007122
C     -1.402594   -3.511354   -2.169141
C     -0.782721   -1.883738   -0.331977
F      1.206593   -3.815143   -1.067562
N      4.890870    8.613327    2.308466
N     -1.302309   -3.791805   -3.407525
N      2.180070    4.592154    1.928151
N      2.956422    1.300228    0.320930
N     -1.138038   -2.226394   -1.669150
O      1.132046    2.136217    1.435676
O     -3.614444   -1.281006   -0.999478
S     -1.894894   -4.774526   -1.022659
H     -6.505518   -0.645436   -2.141474
H     -5.357304    0.494657   -2.883430
H     -4.965014   -1.225111   -3.004228
H     -5.359361   -0.588763   -0.122751
H     -4.226982    0.622776   -0.946369
H      5.667149    5.554300    0.824493
H      4.400604   -0.773957   -0.378672
H      3.614032   -3.028869   -1.013454
H      4.788520    3.278707    0.346390
H     -2.979623   -2.312737    2.007803
H     -3.354368   -3.287404    0.551186
H      0.337613    0.425694    0.308491
H     -1.483331    0.180668   -0.681425
H     -1.275650   -0.332119    1.103550
H      2.060824    6.570464    2.722690
H     -0.270555   -4.768746    0.837679
H     -1.940572   -4.656347    1.337932
H     -0.784540   -2.503014    1.708226
H     -3.496472   -0.422057    0.886855
H     -1.009858   -3.021150   -4.064999
H      3.950840    1.540639   -0.003947
H     -1.210382   -1.416692   -2.352790
