24

C     -3.912834    1.022602    0.421468
C      3.819722   -0.808836    0.761458
C      2.478172   -1.098944    0.860535
C      4.265153    0.258175    0.003158
C      2.001196    0.731322   -0.549100
C     -3.456087   -0.184602   -0.343649
C      1.558440   -0.332387    0.206970
C      3.336283    1.033744   -0.657941
C     -2.082207   -0.576630    0.069958
C      0.112017   -0.634382    0.305704
Cl     3.903526    2.395279   -1.625608
N     -0.908760    0.018062   -0.271476
N     -1.718894   -1.598123    0.865238
O     -3.486951    0.096010   -1.729603
O     -0.405351   -1.619561    0.996545
H     -4.672110    1.554509   -0.169014
H     -4.320901    0.684253    1.408859
H     -3.062099    1.686950    0.631467
H      4.553162   -1.421963    1.284006
H      2.122198   -1.944007    1.460826
H      5.330972    0.471120   -0.062442
H      1.255227    1.320465   -1.054834
H     -4.155929   -1.017872   -0.181860
H     -2.553942   -0.035185   -2.083031
