29

C      2.538060    1.993007   -1.501900
C      4.483402   -1.974810    0.289685
C     -4.862802   -0.114770    0.750987
C     -3.593222    0.454125    0.904677
C     -5.019490   -1.123570   -0.176436
C     -2.717568   -0.982133   -0.759243
C      2.354092    1.142078   -0.288835
C      3.917002   -0.605697    0.422595
C     -2.525734    0.026114    0.156653
C     -3.970635   -1.571830   -0.938233
C      0.909468    1.109479    0.131271
C     -1.217496    0.618078    0.320611
Cl    -4.244986   -2.849407   -2.089039
N     -0.065714    0.312462   -0.335315
N      0.307887    1.872914    1.058317
O      4.337131    0.212253    1.297761
O      2.899536   -0.134808   -0.394750
O     -0.936750    1.569107    1.153380
H      3.623066    2.127836   -1.665337
H      2.146290    3.014731   -1.249989
H      1.998507    1.643439   -2.382953
H      5.509352   -2.048869    0.647333
H      4.506601   -2.189273   -0.808733
H      3.851938   -2.749286    0.759592
H     -5.679873    0.242236    1.352008
H     -3.507884    1.247745    1.646111
H     -6.020432   -1.539048   -0.265606
H     -1.918522   -1.360283   -1.375085
H      2.898777    1.658179    0.556704
