24

C      2.784752    0.491626    1.083194
C     -1.000647   -1.314320    0.077895
C      0.411899   -1.477862   -0.303506
C      0.494882    0.772711   -1.344767
C     -2.540388    0.525918    0.780115
C     -1.669947   -0.052237   -0.316127
C      1.202766   -0.208001   -0.434715
C     -0.818314    1.064252   -0.669831
N     -1.402569    2.152770   -0.313143
O      1.408994    0.378474    0.801096
O     -2.630908    1.873653    0.286283
H      2.851613    0.971674    2.091349
H      3.288637    1.147628    0.343356
H      3.271064   -0.502853    1.148243
H     -1.586202   -2.166534   -0.345749
H     -1.128272   -1.425932    1.195681
H      0.551042   -2.065378   -1.252979
H      0.929884   -2.093667    0.485291
H      0.243776    0.302494   -2.312023
H      1.095403    1.688221   -1.446629
H     -3.524821    0.043135    0.834431
H     -2.026197    0.593684    1.749799
H     -2.368053   -0.230957   -1.187952
H      2.161605   -0.468501   -0.949313
