24

C     -3.950109    0.188067    1.075305
C      3.360110    1.529557   -0.025649
C      2.035561    1.124602   -0.066776
C      4.322244    0.562847    0.080532
C      2.616603   -1.144517    0.099349
C     -3.280915    0.236406   -0.276486
C      1.644661   -0.176918   -0.007375
C      3.939240   -0.778456    0.142734
C     -1.919043   -0.372636   -0.172109
C      0.236508   -0.548035   -0.054690
Cl     5.172347   -1.990285    0.277226
N     -0.787367    0.316069   -0.157723
N     -1.590220   -1.661752   -0.077786
O     -4.015901   -0.498448   -1.209402
O     -0.307523   -1.731405   -0.010018
H     -3.291751    0.691926    1.801868
H     -4.054262   -0.875302    1.359340
H     -4.937571    0.696684    0.961179
H      3.646060    2.569634   -0.074415
H      1.256303    1.889996   -0.151711
H      5.397273    0.790888    0.120013
H      2.371583   -2.213902    0.151933
H     -3.206451    1.281399   -0.624856
H     -4.657381    0.113580   -1.683941
