24

C      3.575363   -0.328143   -1.114392
C     -2.098163    0.438335   -0.707771
C      2.589964   -0.092902   -0.008158
C     -1.472820   -0.922349   -0.457117
C     -0.742707   -0.824688    0.873117
C      0.350298    0.212375    0.762199
C     -0.510077    1.467629    0.554911
C     -1.582421    1.206857    1.545351
O      3.043026    0.019975    1.163759
O     -2.423955   -1.926164   -0.414296
O     -2.302353    2.067276    2.097387
O     -1.100369    1.397754   -0.707047
O      1.232490   -0.006107   -0.288180
O     -1.656818   -0.158144    1.760931
H      3.304826    0.295867   -1.990996
H      4.596182   -0.066482   -0.779245
H      3.539348   -1.415481   -1.330570
H     -2.864403    0.666640    0.066204
H     -2.625596    0.465341   -1.689013
H     -0.777367   -1.105708   -1.298925
H     -0.411610   -1.784962    1.257837
H      0.844383    0.297151    1.749184
H      0.052676    2.378778    0.735060
H     -2.559896   -2.282845    0.504943
