30

C      2.639867    1.423507    0.795366
C      3.098503   -0.809260   -0.050749
C     -2.761055   -0.988176    0.121726
C      0.541133   -1.393751    1.549733
C     -2.596692    0.423519   -0.391140
C     -0.640573   -0.613833    0.951556
C     -1.266296    0.641191   -1.047698
C     -0.172833   -0.233197   -0.426186
C      1.960080    0.082461    0.468619
O     -2.820045    1.325358    0.644639
O     -0.907057    1.989796   -0.992679
O     -1.760598   -1.380436    0.970837
O      1.543096   -0.446805    1.651816
O      1.049429    0.313331   -0.490226
H      1.914181    2.253243    0.549586
H      2.834999    1.521287    1.874566
H      3.577325    1.548051    0.256116
H      3.801968   -0.249371   -0.667098
H      2.700350   -1.727038   -0.491129
H      3.676186   -1.131412    0.864387
H     -2.755441   -1.695544   -0.751179
H     -3.738939   -1.058811    0.630009
H      0.836902   -2.138955    0.772166
H      0.308949   -1.821705    2.518280
H     -3.438975    0.588059   -1.120878
H     -0.718916    0.317015    1.577895
H     -1.395223    0.405677   -2.132943
H     -0.194935   -1.183258   -1.037037
H     -3.798802    1.518758    0.749237
H     -1.516587    2.520298   -0.423341
