16

C      1.974515   -0.880835    0.575845
C     -0.206757    1.702423   -0.743845
C     -1.747937   -1.127589    0.343735
C      1.364330   -0.073817   -0.272453
C     -0.031603    0.372019   -0.049707
O     -0.865559   -0.609196   -0.587662
H      1.454791   -1.239364    1.469084
H      2.991354   -1.232323    0.454906
H      0.504737    2.412633   -0.304395
H      0.136759    1.537951   -1.806748
H     -1.254184    2.054403   -0.730982
H     -1.207028   -1.594682    1.194669
H     -2.405032   -1.836337   -0.176969
H     -2.357756   -0.287754    0.743881
H      1.901160    0.264261   -1.145262
H     -0.251789    0.538209    1.035903
