33

C      3.625026   -0.626856    0.575170
C     -3.045503   -3.237750   -0.041159
C     -1.793578    3.682080   -0.292563
C      2.631575   -0.443725   -0.566822
C      1.918199    0.890973   -0.440718
C      1.164435    0.977793    0.851804
C      0.115706   -0.060338    1.029821
C     -2.012495   -2.219595   -0.354616
C     -0.969228   -0.056589   -0.018667
C     -1.686938    1.240247   -0.037377
N     -1.941406   -1.097083    0.229154
O     -1.089538   -2.533419   -1.338375
O     -2.915939    1.270547    0.175445
O     -1.071081    2.459662   -0.282535
H      3.826556    0.342348    1.052756
H      3.293123   -1.376574    1.300699
H      4.584079   -0.984330    0.131469
H     -3.983850   -2.743975    0.253192
H     -3.245428   -3.882236   -0.940523
H     -2.698577   -3.898453    0.792837
H     -1.431982    4.273570    0.558189
H     -2.861312    3.448549   -0.112257
H     -1.659482    4.164420   -1.276353
H      1.874857   -1.223410   -0.445229
H      3.123305   -0.546921   -1.532498
H      2.737531    1.660543   -0.384292
H      1.340170    1.115585   -1.333065
H      1.929626    0.778435    1.662947
H      0.763971    1.977708    1.049509
H      0.553554   -1.057407    1.163708
H     -0.404075    0.171637    2.004864
H     -0.541774   -0.247205   -1.031908
H     -0.129527   -2.218232   -1.302506
