46

C      0.666971   -1.647937    2.662959
C     -5.319417    0.496535   -2.580309
C      1.660626    0.257464   -1.109688
C      2.695268   -0.196616   -1.912403
C     -2.500027   -1.666539    0.937793
C     -1.616458   -1.574182    2.183612
C     -3.324671   -0.010411   -0.699009
C     -1.351987    1.789083   -0.169313
C      6.168868   -0.545918   -1.003965
C     -2.358773   -0.329023    0.254210
C      1.810915    0.474578    0.258091
C     -1.363128    0.578961    0.521101
C     -2.325646    2.055384   -1.098135
C      3.927362   -0.449498   -1.358116
C     -3.338905    1.171982   -1.394051
C      3.065091    0.204322    0.762762
C     -0.338287    0.267713    1.530235
C      0.984670    0.953947    1.364521
C      4.122609   -0.249885   -0.008978
C      3.052385    0.441079    2.198261
N     -0.276748   -1.117303    1.760510
O     -2.230343    3.295682   -1.739065
O      4.051514    0.291675    2.986164
O     -4.315112    1.475664   -2.346885
O      5.134275   -0.906768   -1.917901
O      5.449558   -0.589341    0.235391
O      1.793461    0.842529    2.517677
H      1.571286   -2.013399    2.092862
H      0.964909   -1.059707    3.521418
H      0.262582   -2.615012    3.108982
H     -5.811672    0.211614   -1.615889
H     -6.022302    0.811136   -3.350688
H     -4.853768   -0.461339   -2.955197
H      0.712951    0.445948   -1.553841
H      2.568764   -0.363210   -2.979561
H     -3.527669   -1.844720    1.268786
H     -2.091250   -2.408810    0.245119
H     -1.562191   -2.533858    2.722043
H     -2.061255   -0.811412    2.852967
H     -4.113065   -0.729036   -0.911135
H     -0.564451    2.474402    0.062591
H      6.476337    0.512882   -1.132611
H      7.008387   -1.241312   -1.020262
H     -0.760986    0.727002    2.492872
H      0.809777    2.072222    1.309691
H     -2.930454    3.513431   -2.422117
