46

C     -1.948362    3.360514   -0.693998
C     -4.249149   -3.116617    0.100016
C      2.477901    1.039522    1.512661
C      3.354938    0.202148    2.166903
C     -1.905948    0.633096   -2.230665
C     -1.212675    1.928105   -2.434007
C     -2.619477   -0.948913   -0.521401
C     -0.966377    0.151803    1.332805
C      5.375744   -2.400431    0.714174
C     -1.805832    0.140847   -0.848293
C      2.106245    0.834521    0.174701
C     -0.965477    0.708759    0.075518
C     -1.753196   -0.916054    1.680552
C      3.907899   -0.880919    1.527645
C     -2.586152   -1.467562    0.739275
C      2.675243   -0.252603   -0.431331
C     -0.130227    1.839134   -0.280316
C      1.237748    1.504518   -0.774346
C      3.561067   -1.106663    0.213774
C      2.159736   -0.274012   -1.790508
N     -0.808335    2.640465   -1.276563
O     -1.712955   -1.440219    2.971768
O      2.477115   -1.159788   -2.658258
O     -3.395875   -2.569465    1.103974
O      4.811062   -1.886299    1.930351
O      4.261303   -2.248346   -0.160244
O      1.306484    0.795623   -1.944824
H     -1.789669    4.457854   -0.719183
H     -2.155809    2.975124    0.327027
H     -2.847437    3.137035   -1.298491
H     -3.700831   -3.602830   -0.708886
H     -4.956954   -3.839156    0.532108
H     -4.866081   -2.291384   -0.361396
H      2.058390    1.876809    2.027183
H      3.628734    0.378422    3.200407
H     -1.499418   -0.193803   -2.882893
H     -2.996904    0.670811   -2.526768
H     -0.375152    1.832973   -3.190953
H     -1.941579    2.604796   -2.979627
H     -3.276170   -1.385057   -1.260712
H     -0.316260    0.559653    2.119004
H      6.200097   -1.694417    0.459447
H      5.692237   -3.439300    0.811917
H      0.023301    2.538506    0.589581
H      1.723935    2.511038   -0.981623
H     -2.256880   -2.208239    3.279600
