29

C      5.017859    0.351733   -0.308344
C     -4.567569   -0.469117    0.202997
C     -2.520153    1.610831    0.282386
C      3.762867   -0.242974   -0.889941
C     -3.245788   -0.650111   -0.476617
C      2.570973   -0.068597   -0.010127
C      1.360760   -0.670135   -0.717353
C     -2.191921    0.132328    0.252366
C      0.132627   -0.532687    0.121330
O      0.158921   -0.878851    1.307372
O     -0.996017   -0.007429   -0.498955
H      5.613485   -0.342256    0.280992
H      5.647031    0.688716   -1.183376
H      4.780640    1.316211    0.214803
H     -5.346336   -0.133982   -0.526435
H     -4.462577    0.335732    0.981185
H     -4.861503   -1.415138    0.672503
H     -1.722734    2.237474   -0.189423
H     -2.611546    1.923359    1.344138
H     -3.478127    1.755281   -0.266031
H      3.916217   -1.315953   -1.047699
H      3.562590    0.231554   -1.874992
H     -3.283025   -0.341230   -1.548256
H     -2.953820   -1.739796   -0.469899
H      2.318558    0.998502    0.184936
H      2.688492   -0.542303    0.975440
H      1.162681   -0.214714   -1.697963
H      1.556044   -1.769913   -0.925221
H     -2.008631   -0.246537    1.261971
