30

C     -2.766272   -1.363745   -0.165085
C     -2.846868    0.892789    0.735874
C      2.606540    1.064240   -0.447997
C     -0.675374    0.765022   -1.867208
C      2.226698    0.419527    0.859798
C      0.468563    0.698475   -0.927894
C      1.486187   -0.898388    0.598928
C      0.239451   -0.596399   -0.131342
C     -1.966249   -0.052841   -0.098146
O      3.395496    0.098731    1.528420
O      2.333710   -1.631436   -0.258478
O      1.710594    0.702803   -1.483243
O     -1.858859    0.447346   -1.323313
O     -0.850800   -0.307583    0.642648
H     -3.841233   -1.150957   -0.333964
H     -2.626423   -1.891157    0.795673
H     -2.318697   -1.978477   -0.957714
H     -2.190076    1.604196    1.306349
H     -3.466406    0.349561    1.449873
H     -3.495925    1.493336    0.079300
H      3.643328    0.888861   -0.748834
H      2.430412    2.171359   -0.309654
H     -0.687821    1.770636   -2.374195
H     -0.460940    0.046219   -2.711931
H      1.587802    1.080582    1.490169
H      0.394760    1.581632   -0.234591
H      1.382886   -1.475654    1.511077
H     -0.060116   -1.389743   -0.867314
H      3.588485   -0.864667    1.537268
H      2.617150   -2.474269    0.137638
