69

C      1.908922   -3.487645    2.417791
C     -4.473089    1.324434   -1.872952
C     -3.602546    1.613740    0.302337
C      3.977279    1.928523    0.488443
C      2.059440    3.255421    0.133617
C     -5.463657    2.236458   -1.662885
C     -4.595731    2.541914    0.542123
C      4.795439    2.985414    0.140090
C      2.890158    4.325729   -0.219232
C      2.108435   -2.194528    2.831406
C      1.662063   -2.746321    0.161023
C     -1.203142   -0.752477    1.881785
C     -1.639630   -2.297914    0.174033
C     -1.588654   -3.006426    2.459443
C      1.930279   -0.182108   -2.563929
C     -0.002590   -0.013697   -3.867064
C      1.470845   -5.147700    0.632216
C      1.683392   -3.789777    1.086502
C     -3.535358    0.998774   -0.908992
C      2.607667    2.043429    0.491454
C     -1.361308   -1.007287    0.546539
C     -5.514675    2.845950   -0.435630
C      4.263035    4.204715   -0.220427
C     -1.310117   -1.725737    2.856531
C     -1.754963   -3.305789    1.131149
C      1.352409   -0.126803   -3.789826
C      1.866348   -1.465991    0.616153
C      1.177534   -0.126883   -1.371581
C      2.093479   -1.128141    1.934043
C     -0.769594    0.042866   -2.681233
C     -1.242554    0.067275   -0.434728
C      1.924157   -0.190168   -0.140011
C     -0.188977   -0.013702   -1.425667
C     -2.535024   -0.006803   -1.265887
C      1.731049    0.876043    0.875036
O      1.489961   -6.077491    1.458351
O     -6.527540    3.781425   -0.215027
O      5.098878    5.262459   -0.569541
O     -1.133400   -1.380799    4.203190
O     -2.037616   -4.599120    0.715266
O      2.132604   -0.184749   -4.956459
O      2.257309    0.253319    2.043057
O     -2.124283    0.157617   -2.590228
H      1.929096   -4.278359    3.146206
H     -4.415382    0.823797   -2.853067
H     -2.911202    1.411623    1.118446
H      4.400127    0.970040    0.771678
H      0.976647    3.362079    0.131111
H     -6.181530    2.455157   -2.467010
H     -4.662314    3.048102    1.518201
H      5.887674    2.892941    0.138026
H      2.468189    5.274101   -0.499400
H      2.280635   -2.009611    3.881739
H      1.487565   -2.962015   -0.882691
H     -0.987028    0.254867    2.235386
H     -1.769566   -2.562435   -0.854756
H     -1.677754   -3.779182    3.183503
H      3.012290   -0.273616   -2.483985
H     -0.462312    0.030376   -4.843726
H      1.299686   -5.347542   -0.400630
H     -1.318880    1.097792    0.034052
H      3.065548   -0.124252   -0.367192
H     -3.002389   -1.018981   -1.203546
H      0.747491    1.286550    1.014742
H     -6.324151    4.756667   -0.446434
H      5.450880    5.928819    0.103576
H     -0.180133   -1.444436    4.553965
H     -2.116537   -5.312175    1.425638
H      3.127116   -0.267756   -4.884110
