70

C     -2.779712   -1.126525    1.209027
C     -7.267217    0.992870   -2.432574
C      4.878776   -1.377751    1.336220
C      0.218338    0.957845    2.053904
C     -4.828273    0.791701    0.542053
C     -3.500518    0.727718   -0.185788
C     -5.923261    1.281327   -0.345233
C      4.678929    1.608569    0.502330
C      3.235364    1.810920    0.218770
C     -1.040822    1.912941   -0.313068
C      0.436851    2.255603   -0.301281
C      6.060557   -1.875655   -1.437207
C      2.116688   -1.401398    0.964160
C      4.813792   -1.849630   -1.010000
C      0.645900   -1.159273    0.947429
C      6.637092    0.150467   -0.010167
C     -2.390364    0.224761    0.751848
C     -6.148258    0.429265   -1.539667
C      5.155986    0.422868   -0.280259
C      7.060958   -0.920359   -0.940344
C      2.458146    0.792623   -0.025760
C     -1.129452    0.403865    0.027041
C      1.044304    0.921929   -0.307994
C      2.906315   -0.650807   -0.049818
C     -6.498378   -0.963631   -1.160187
C      4.363840   -0.833422    0.010370
C      0.160134    0.209692    0.737505
O      8.261522   -1.009193   -1.299030
O     -6.764575   -1.304862    0.007122
O     -6.546524   -1.972402   -2.121915
H     -3.524275   -0.999660    2.054574
H     -1.980251   -1.736459    1.666504
H     -3.367664   -1.705502    0.454976
H     -8.110053    1.355015   -1.833525
H     -6.797691    1.839468   -2.997804
H     -7.538416    0.169388   -3.128191
H      5.900069   -1.820954    1.137314
H      4.904869   -0.597771    2.114882
H      4.285445   -2.226544    1.709206
H      1.186623    1.461979    2.213270
H     -0.588622    1.717536    2.034214
H      0.081138    0.266022    2.925262
H     -4.695329    1.476844    1.427148
H     -5.033421   -0.208071    0.947185
H     -3.573212    0.075603   -1.078864
H     -3.267519    1.748479   -0.547625
H     -6.859743    1.291437    0.290144
H     -5.746350    2.340134   -0.689973
H      5.294539    2.476205    0.207716
H      4.760150    1.410404    1.592064
H      2.829031    2.843509    0.218405
H     -1.417062    2.059975   -1.345834
H     -1.619023    2.496403    0.434877
H      0.725389    2.927968   -1.134784
H      0.608099    2.827463    0.636967
H      6.402649   -2.611563   -2.180928
H      2.544937   -1.219440    1.992299
H      2.261541   -2.492348    0.762891
H      4.130445   -2.582007   -1.417372
H      0.093045   -1.890735    0.289722
H      0.321535   -1.456597    1.997060
H      7.177682    1.105393   -0.273448
H      6.856513   -0.030443    1.040240
H     -2.431427    0.908408    1.634442
H     -5.250911    0.413038   -2.185294
H      5.117188    0.696485   -1.375271
H     -1.125807   -0.182530   -0.899127
H      0.815764    0.418118   -1.269708
H      2.563719   -1.034537   -1.059037
H     -6.249730   -2.938907   -1.912061
