42

C     -3.054399    1.331369    0.638516
C      2.501482    1.549805   -1.173484
C     -3.875499    0.124782    0.993875
C      3.615464    0.541028   -1.399518
C      2.227297   -0.204146    1.548096
C     -1.229502   -1.420909   -0.771776
C      1.259378    0.683879    0.832204
C      2.051264   -1.588677    1.025116
C     -2.494394   -0.681106   -0.453029
C     -0.179535    0.143065    0.897899
C      1.169494   -1.682556   -0.184962
C     -0.763245    1.103220   -0.147731
C      1.749942   -0.671797   -1.167236
C     -2.169791    0.802356   -0.495535
C     -0.213821   -1.223659    0.301361
C      1.395463    0.694138   -0.660142
O      2.544403   -2.582048    1.486374
O     -2.517832    1.381085   -1.688239
O     -0.538309   -2.120303    1.345950
O     -2.951388   -0.916955    0.831719
O      3.120779   -0.695553   -1.071608
O      0.141062    1.031521   -1.172708
H     -2.441803    1.660332    1.505377
H     -3.696791    2.152718    0.304091
H      2.802541    2.370710   -0.513553
H      2.229355    1.921847   -2.204637
H     -4.709789    0.035799    0.271663
H     -4.263521    0.151145    2.035154
H      4.051790    0.610507   -2.411992
H      4.444242    0.836063   -0.694652
H      3.229368    0.187519    1.400883
H      1.914996   -0.235673    2.615300
H     -0.890724   -1.087862   -1.773013
H     -1.491819   -2.500927   -0.858301
H      1.300975    1.729692    1.183436
H     -3.255460   -0.919056   -1.225845
H     -0.626391    0.254461    1.873450
H      1.093769   -2.686171   -0.589112
H     -0.671472    2.122839    0.314390
H      1.437374   -0.866169   -2.196030
H     -1.735076    1.682858   -2.209527
H     -0.509879   -3.019173    0.917930
