42

C      3.084526    1.301305    1.070465
C     -2.791849    1.320834    0.942778
C      3.992156    0.116992    0.811600
C     -3.331405    1.723205   -0.436361
C     -2.169778   -1.749974    0.675577
C      1.413319   -0.893348   -1.420975
C     -1.267571   -0.663661    1.217415
C     -2.138516   -1.719977   -0.808634
C      2.427452   -0.130556   -0.658779
C      0.192292   -0.855618    0.783115
C     -1.089005   -0.826457   -1.371116
C      0.695281    0.546103    1.031965
C     -1.496762    0.572495   -0.907322
C      1.861708    0.948430    0.211824
C      0.192325   -1.264562   -0.642614
C     -1.503859    0.683931    0.578248
O     -2.856855   -2.328923   -1.555837
O      1.602918    2.054694   -0.604524
O      0.135954   -2.681638   -0.650289
O      3.202989   -0.860670    0.201670
O     -2.851435    0.698811   -1.243615
O     -0.377467    1.403153    0.962772
H      2.811669    1.419100    2.118179
H      3.589344    2.207863    0.669949
H     -2.686388    2.204921    1.604962
H     -3.448561    0.550391    1.408611
H      4.463248   -0.245361    1.747993
H      4.799811    0.398471    0.077311
H     -2.801204    2.653573   -0.707095
H     -4.415064    1.781062   -0.456876
H     -1.769683   -2.716559    1.016103
H     -3.180737   -1.528016    1.005189
H      1.915594   -1.760245   -1.905976
H      1.076273   -0.245198   -2.281766
H     -1.376689   -0.651304    2.307177
H      3.103446    0.378972   -1.403390
H      0.675522   -1.599312    1.450732
H     -0.989672   -0.870011   -2.449200
H      1.031632    0.553948    2.112141
H     -0.953369    1.356891   -1.428375
H      1.418715    1.720859   -1.539837
H     -0.190305   -3.004614   -1.533193
