49

C     -1.060190    4.252329    0.581256
C      6.131766   -3.794054    0.260684
C     -6.483455    0.336731   -1.018880
C     -3.042291   -0.801611    3.146208
C     -2.259655    0.205373   -1.644772
C      4.838097   -1.403423   -0.431032
C      4.171226   -0.232140   -0.768415
C     -3.631988    0.251068   -1.455114
C     -1.945206   -0.316860    0.631525
C      2.751796   -2.414425   -0.017309
C     -0.270633    3.007653    0.721928
C     -1.392605   -0.078452   -0.608926
C      4.109430   -2.503561   -0.051781
C      2.797211   -0.123025   -0.739468
C     -4.182320    0.013558   -0.219381
C      2.073738   -1.239004   -0.355476
C     -3.329698   -0.271076    0.824292
C      2.091513    1.149385   -1.106848
C      0.043094   -0.109058   -0.886615
C      0.781949    1.104946   -0.355902
O      0.141452    2.553911    1.813724
O      2.848682    2.260188   -0.800840
O      4.726060   -3.681676    0.290061
O     -5.568188    0.054147   -0.002650
O     -3.897192   -0.510582    2.074020
O      0.049292    2.275823   -0.403797
O      0.685917   -1.244986   -0.289723
H     -2.145541    4.089548    0.697281
H     -0.769621    4.978249    1.384660
H     -0.835094    4.774923   -0.379808
H      6.581444   -3.073409    0.987109
H      6.521045   -3.641876   -0.757522
H      6.396316   -4.807482    0.610619
H     -6.653003    1.436771   -1.169399
H     -6.238807   -0.107763   -1.995859
H     -7.476016   -0.060990   -0.684882
H     -2.224606   -0.032684    3.186716
H     -3.627057   -0.690882    4.087934
H     -2.557147   -1.785604    3.048008
H     -1.901282    0.405800   -2.656915
H      5.918806   -1.401971   -0.481221
H      4.725005    0.662669   -1.075099
H     -4.303036    0.473998   -2.271601
H     -1.285967   -0.537244    1.439899
H      2.173266   -3.266066    0.276941
H      1.867361    1.057143   -2.191487
H      0.236206   -0.209916   -1.974585
H      1.038885    0.896032    0.710049
H      3.381037    2.099575    0.022395
