84

C     -5.161865   -2.598942   -1.542220
C     -3.153948   -0.927951   -2.539047
C      5.698251    1.781546   -0.378807
C      6.238310    0.017909    1.244149
C      3.239727    0.639410   -1.958587
C      1.135371    1.982835   -0.091160
C     -0.336530   -1.122095    1.605769
C     -5.897404    2.722242    0.276324
C     -5.069339   -1.464759    0.595330
C      3.365368    0.991448    1.410853
C      0.800881   -1.336916   -1.004617
C      5.038939   -1.779786   -1.161971
C      3.564581   -1.636754   -1.279723
C      1.937714    0.749968    1.775433
C     -4.197870   -0.790825    1.574456
C     -0.507271   -1.172334   -1.107624
C     -1.031460    1.171470    1.712577
C     -2.277959    0.469178    2.201077
C     -4.052268    1.572463    1.035687
C     -4.738191   -1.285956   -0.823963
C     -3.249132   -1.194918   -1.044117
C      3.968277    0.093956    0.392248
C      1.735794   -0.493539   -0.242750
C      5.771552   -0.514867   -1.060249
C     -2.619770   -0.051164   -0.273517
C      5.366212    0.416756    0.044334
C      3.073503   -0.245236   -0.803591
C      1.085974    0.631484    0.489130
C     -0.322984    0.154656    0.842814
C     -3.250194    0.254502    1.034108
C     -1.138209   -0.025273   -0.397578
O      6.662216   -0.261548   -1.850344
O     -0.790909    1.070010   -1.234662
O     -5.175316    1.559285    0.284272
H     -5.348796   -2.398410   -2.609009
H     -6.114162   -2.972802   -1.108536
H     -4.401046   -3.384206   -1.362425
H     -4.099559   -0.468359   -2.947709
H     -2.960024   -1.788326   -3.160162
H     -2.388299   -0.153881   -2.691877
H      5.913790    1.854208   -1.486914
H      6.693645    2.072341    0.075753
H      5.020344    2.585826   -0.125987
H      6.711447    0.935722    1.686177
H      7.084496   -0.631015    0.946757
H      5.659041   -0.542817    2.000347
H      2.332800    0.536722   -2.614374
H      3.545036    1.677151   -1.775266
H      4.061871    0.263268   -2.647622
H      1.926662    2.667863    0.365615
H      0.215855    2.606983    0.135168
H      1.302628    2.110983   -1.154013
H      0.352492   -1.909905    1.336364
H     -0.180860   -0.976304    2.715693
H     -1.332918   -1.619275    1.397163
H     -6.789455    2.582615   -0.373058
H     -6.296741    2.995283    1.289572
H     -5.324340    3.582201   -0.159042
H     -5.009906   -2.575079    0.833094
H     -6.176196   -1.268009    0.790901
H      3.622376    2.078562    1.260192
H      3.936777    0.788123    2.375824
H      1.224230   -2.184879   -1.540359
H      5.422338   -2.419439   -2.005166
H      5.296912   -2.379187   -0.239433
H      3.203291   -1.794559   -2.335762
H      3.089826   -2.443443   -0.689236
H      1.562849    1.674788    2.274276
H      1.814602   -0.127436    2.411468
H     -3.577230   -1.523698    2.175661
H     -4.826699   -0.271362    2.355947
H     -1.104265   -1.894289   -1.712419
H     -0.436945    1.459115    2.601955
H     -1.420740    2.048422    1.157474
H     -2.730257    1.194000    2.946604
H     -2.118288   -0.420026    2.804219
H     -3.355333    2.361792    0.623528
H     -4.282666    1.893957    2.051919
H     -5.292825   -0.500255   -1.380047
H     -2.844099   -2.177485   -0.752512
H      4.031482   -0.911335    0.934631
H      2.058139   -1.234580    0.597123
H     -3.004521    0.814114   -0.927350
H     -0.378811    0.810068   -2.069182
