26

C      2.713631   -0.387215   -0.699584
C      0.894483    1.379722    0.576640
C     -1.533491    0.270153    1.539303
C     -1.583966    0.755575   -0.850839
C     -1.466244   -1.547413   -0.076028
C      1.223760   -0.487612   -0.964583
C      0.509472   -0.041920    0.269958
C     -0.986430   -0.156785    0.183600
H      3.134627    0.563660   -1.060410
H      3.270218   -1.237375   -1.156631
H      2.926265   -0.457700    0.403281
H      2.020606    1.385635    0.659707
H      0.446838    1.767044    1.512244
H      0.597997    2.022598   -0.289756
H     -0.811870   -0.151822    2.294039
H     -1.549434    1.366578    1.636600
H     -2.525419   -0.188642    1.725514
H     -1.141487    0.481384   -1.839874
H     -1.399584    1.828651   -0.655714
H     -2.683525    0.583440   -0.838701
H     -1.347988   -1.868849   -1.132426
H     -2.554892   -1.576332    0.154522
H     -0.999033   -2.290946    0.627325
H      0.989708    0.173396   -1.842517
H      1.004351   -1.508779   -1.286118
H      0.851407   -0.676445    1.110448
