30

C      4.383826   -0.134024   -0.077393
C      2.236487    0.481716    0.970928
C      2.226495   -0.850739   -1.034285
C      0.843161    0.459783    1.004234
C      0.873875   -0.866033   -0.982518
C     -2.043458    0.159596   -1.208074
C     -3.171860    1.023415    0.918779
C     -2.039859   -0.896405    1.171238
C      2.903468   -0.159408   -0.028709
C      0.158909   -0.218747    0.018587
C     -2.047664    1.135434   -0.085036
C     -1.319147   -0.208849    0.021059
N     -3.387288   -0.396923    1.157176
Cl     0.683330    0.000000    0.000000
H      4.707654    0.905029    0.054641
H      4.854675   -0.737729    0.755364
H      4.766321   -0.472462   -1.024286
H      2.798723    0.994415    1.717986
H      2.775720   -1.349421   -1.796401
H      0.309610    0.964204    1.799216
H      0.358674   -1.413044   -1.753430
H     -2.966894   -0.414256   -1.434825
H     -1.418924    0.453148   -2.091600
H     -4.086276    1.507703    0.536369
H     -2.809097    1.466135    1.867454
H     -1.981156   -1.996002    1.105126
H     -1.566298   -0.593239    2.129571
H     -1.391108    2.020541   -0.086606
H     -3.968571   -0.863836    0.470455
H     -0.683330    0.000000    0.000000
