38

C      5.529065   -0.094350    0.978397
C     -6.359336    0.003704   -1.787540
C      4.650517    0.703051    0.059833
C      4.064533   -0.150608   -1.004899
C      3.209269   -1.278940   -0.532823
C      2.021294   -0.897256    0.263507
C      1.090664    0.005899   -0.553621
C     -1.446472   -0.214078    0.105285
C     -3.776530   -0.089591    1.048321
C     -5.684659   -0.236272   -0.489993
C     -0.099240    0.393556    0.252540
C     -2.380396    0.440506    1.097947
O     -6.295192   -0.830712    0.430605
O      0.084434    1.271073    1.077855
O     -2.318099    1.806125    0.894119
O     -4.384710    0.165399   -0.217853
H      5.577112   -1.173418    0.712558
H      6.605040    0.246860    0.954840
H      5.238899   -0.011347    2.046723
H     -6.308699   -0.899212   -2.419509
H     -7.428975    0.255805   -1.576121
H     -5.896219    0.865779   -2.306188
H      5.328662    1.443262   -0.457051
H      3.912574    1.334705    0.595740
H      3.465570    0.504572   -1.696740
H      4.895120   -0.526988   -1.638431
H      2.847334   -1.843639   -1.432699
H      3.852260   -1.999046    0.017369
H      1.422395   -1.830670    0.436004
H      2.204887   -0.462956    1.239912
H      0.819923   -0.479795   -1.513823
H      1.638189    0.938107   -0.799475
H     -1.399868   -1.321010    0.254233
H     -1.872809   -0.046000   -0.910267
H     -3.853162   -1.157815    1.258197
H     -4.386757    0.480207    1.792266
H     -1.965505    0.172505    2.114275
H     -2.601111    2.295240    1.706507
