34

C      3.507169   -1.115738    0.509814
C      2.872216   -1.109383   -0.871798
C     -4.175422   -1.077567    0.854442
C     -3.890655   -2.140570    0.023221
C      2.366719    0.242969   -1.252563
C     -3.259201   -0.081487    1.100183
C     -2.651834   -2.207775   -0.579495
C     -0.520899    1.952152    1.184630
C      0.023488    2.825246    0.071020
C     -2.007815   -0.139861    0.497645
C     -0.931633    0.681921    0.555863
C     -1.739191   -1.208536   -0.330053
C      1.334138    0.834259   -0.370043
C      0.057976    0.106639   -0.268790
N      1.125488    2.248777   -0.617654
N     -0.461193   -1.000812   -0.768488
H      2.741471   -1.474105    1.255076
H      3.856864   -0.121119    0.803734
H      4.319920   -1.869105    0.508937
H      3.717400   -1.330145   -1.595556
H      2.142497   -1.903604   -0.927452
H     -5.163081   -1.017673    1.339139
H     -4.636697   -2.919090   -0.155342
H      1.914262    0.119770   -2.283004
H      3.210464    0.958944   -1.417860
H     -3.440216    0.766921    1.742749
H     -2.435001   -3.042083   -1.228880
H      0.299913    1.772761    1.917041
H     -1.370099    2.492311    1.653813
H      0.314248    3.815112    0.480109
H     -0.811363    3.014655   -0.665017
H      1.751614    0.821278    0.708679
H      1.982182    2.802245   -0.439549
H     -0.043730   -1.697303   -1.434551
