43

C     -4.147734    1.217450    0.074894
C     -0.830886    0.431386   -2.505770
C     -3.374500    0.511310    1.082497
C      4.888516    0.344362    0.789646
C      5.037504    0.925697   -0.444534
C      3.627427    0.007106    1.226524
C      3.920195    1.157934   -1.217212
C     -1.297810   -1.915210   -0.547199
C     -0.352735   -2.260404    0.530239
C     -1.673498   -0.907261    2.037894
C      0.720917   -0.629314    1.923409
C     -2.334258   -0.271963    0.882249
C      2.488334    0.229792    0.469536
C      1.142856   -0.000643    0.653021
C     -1.864185   -0.490733   -0.479077
C      2.640951    0.814144   -0.770378
C      0.466608    0.437752   -0.465048
C     -0.906625    0.530402   -0.989779
N      1.414550    0.917972   -1.288559
N     -0.422915   -1.497932    1.727964
O     -1.378769    1.795015   -0.629170
H     -3.940391    2.322879    0.209238
H     -5.237842    1.140527    0.368941
H     -3.980452    1.004286   -0.966241
H     -0.000238   -0.214212   -2.845029
H     -1.792422    0.030154   -2.918679
H     -0.659302    1.439213   -2.929528
H     -3.694592    0.647482    2.129683
H      5.775348    0.164398    1.393431
H      6.046990    1.193533   -0.789599
H      3.470130   -0.452452    2.192820
H      4.031010    1.611846   -2.182209
H     -2.200178   -2.593220   -0.492811
H     -0.820137   -2.082532   -1.533590
H     -0.534915   -3.338519    0.818910
H      0.687764   -2.272336    0.122889
H     -1.544074   -0.201776    2.872231
H     -2.372619   -1.712109    2.404520
H      1.548566   -1.265995    2.299075
H      0.481518    0.093177    2.707758
H     -2.701392   -0.532247   -1.238604
H      1.262972    1.342262   -2.251198
H     -1.589686    2.328780   -1.433152
