39

C      2.968211   -1.628320    0.144870
C     -0.024442    1.617932    1.674726
C     -2.565589   -1.110401    1.227731
C     -2.184773   -1.841839   -1.105183
C      1.299625    0.258947   -0.455556
C      0.224625   -0.426529   -0.107834
C      3.678010    0.462439   -0.717269
C     -2.358735    1.881870    0.933957
C     -3.475585    0.165692   -0.636020
C      2.663088   -0.286048   -0.350046
C     -1.188838    1.278755    0.797989
C     -3.457559    1.490665    0.030272
C      5.076776    0.060274   -0.669597
C     -2.253304   -0.653342   -0.186228
C     -1.084887    0.249347   -0.268133
O     -4.405925    2.280347   -0.192608
O      5.479248   -1.041191   -0.275042
O      6.072285    0.954964   -1.091909
O     -1.074864    0.839013   -1.540958
H      0.618407    2.382574    1.230745
H      0.593127    0.718733    1.868456
H     -0.356813    1.995872    2.658702
H     -2.489111    2.633633    1.685662
H     -3.314221    0.350672   -1.725158
H     -4.413766   -0.393300   -0.454929
H      3.513416   -2.212266   -0.655424
H      3.636822   -1.566912    1.034766
H      2.124669   -2.257948    0.419343
H     -2.211168   -0.357822    1.951634
H     -3.662450   -1.217678    1.339758
H     -2.038803   -2.073691    1.401059
H     -2.664069   -1.616367   -2.082085
H     -1.165703   -2.219608   -1.263188
H     -2.830652   -2.640508   -0.635338
H      1.169427    1.274992   -0.838129
H      0.321597   -1.412574    0.265889
H      3.451416    1.469213   -1.088690
H      7.034969    0.854630   -0.809579
H     -0.704459    1.735778   -1.541555
