72

C     -2.286461    4.551240   -0.613775
C      3.066903   -3.859080    0.573791
C     -3.408709    0.047368    1.165217
C     -3.924768    0.979791    2.071473
C     -2.624186    1.844137   -0.118153
C      0.610204   -2.848727   -0.174062
C      0.114963   -0.180914   -0.144071
C     -1.672328   -3.350597   -0.974177
C     -4.305462   -0.863964   -2.192648
C      5.648044    1.907067   -0.772230
C     -3.376577   -3.591672   -2.778921
C     -2.743060    0.475331    0.043873
C     -0.626737   -2.407002   -0.555745
C     -0.893191   -1.060975   -0.546254
C     -3.222437   -1.508659   -1.347917
C     -3.791022    2.334230    1.883582
C     -3.124754    2.771935    0.761747
C      1.613006   -1.980667    0.225307
C      1.355897   -0.602273    0.240469
C      4.619149    2.179244    0.325200
C     -2.187879   -0.479160   -0.938722
C      4.917083    1.335085    1.524657
C      4.047812    1.816069    2.655506
C      2.657148    2.048787    2.172281
C      2.423171    1.573899    0.759259
C     -2.508515   -2.625739   -2.043843
O     -5.233097   -1.832225   -2.536318
O      5.421659    0.616620   -1.268031
O     -4.330619   -4.187210   -1.964482
O     -4.318102    3.247940    2.808036
O      6.274720    1.467407    1.822957
O      4.117573    0.989868    3.775685
O      2.274100    3.398554    2.288925
O     -1.574802   -2.089907   -2.949731
O     -2.978103    4.152654    0.552602
O      2.853781   -2.467103    0.604884
O      2.404535    0.181966    0.649236
O      3.336416    2.101242   -0.140933
H     -2.778843    4.114404   -1.512126
H     -2.328045    5.666478   -0.634486
H     -1.212020    4.277015   -0.574631
H      2.304930   -4.399778    1.202839
H      4.044880   -4.132612    0.992641
H      2.897584   -4.200228   -0.455075
H     -3.533986   -1.006273    1.354376
H     -4.449106    0.625456    2.953762
H     -2.092464    2.204010   -1.013054
H      0.848829   -3.917783   -0.172512
H     -0.106253    0.873892   -0.140664
H     -1.278938   -4.308644   -1.359469
H     -2.385321   -3.574522   -0.128824
H     -4.817735   -0.054492   -1.665633
H     -3.870446   -0.485902   -3.153679
H      5.615316    2.673658   -1.568046
H      6.654978    1.986356   -0.282492
H     -3.751209   -3.158610   -3.704252
H     -2.689138   -4.444941   -3.079626
H     -3.666478   -1.922158   -0.425732
H      4.796657    3.252937    0.624293
H     -1.989673    0.119674   -1.883974
H      4.728365    0.280746    1.288845
H      4.468746    2.812778    2.976923
H      1.963789    1.477006    2.824308
H      1.435164    1.966650    0.459688
H     -6.066852   -1.427120   -2.919120
H      5.423467    0.698335   -2.258419
H     -3.931062   -4.968548   -1.472658
H     -4.807788    2.950778    3.633166
H      6.778948    0.716747    1.421534
H      3.519421    0.234774    3.617237
H      2.412935    3.664524    3.221433
H     -0.764003   -2.679166   -3.011243
