44

C     -4.973646    0.637681   -1.418066
C     -4.746766    0.456676    1.033637
C     -4.478134   -1.509473   -0.387034
C      5.439955   -0.825427    2.123769
C      4.993641   -1.804171    1.253329
C      4.641184    0.281438    2.335912
C      3.763775   -1.690997    0.594789
C      3.413382    0.390231    1.675885
C      2.281781    0.765791   -1.971882
C      0.077222    0.970562   -0.801863
C      0.539291   -0.310359    1.124025
C      2.982403   -0.591492    0.812677
C      1.556819    0.837289   -0.646682
C      1.686414   -0.473491    0.118349
C     -1.882530   -0.178696    0.413777
C     -4.198802   -0.028893   -0.300053
N      2.034353    1.953647   -2.729138
N     -0.516384    0.152388    0.236648
O     -2.296094   -0.901391    1.355100
O     -2.850407    0.290320   -0.464111
H     -5.224477   -0.093387   -2.218729
H     -5.842824    1.151102   -1.008756
H     -4.343878    1.416860   -1.926232
H     -5.833244    0.655729    0.874075
H     -4.599125   -0.311566    1.817070
H     -4.242401    1.415026    1.262446
H     -4.400709   -1.940951    0.618987
H     -3.853577   -2.015655   -1.145360
H     -5.531303   -1.627227   -0.718658
H      6.387796   -0.903873    2.636725
H      5.612147   -2.678970    1.078092
H      4.956397    1.059588    3.004474
H      3.438553   -2.475139   -0.083414
H      2.775711    1.245889    1.828157
H      2.038740   -0.163412   -2.492795
H      3.372836    0.731266   -1.740571
H     -0.190904    2.039424   -0.716287
H     -0.260655    0.539003   -1.770370
H      0.847680    0.471568    1.853629
H      0.293826   -1.256825    1.613880
H      1.965787    1.638175   -0.000986
H      1.463332   -1.321821   -0.529478
H      2.654607    1.931809   -3.577801
H      1.048228    2.071754   -3.017167
