33

C     -3.711161   -1.311906    0.155913
C      5.332090   -0.609875   -0.004311
C      4.885488    0.647006    0.336947
C      4.422930   -1.635328   -0.252510
C      3.510482    0.868824    0.427936
C      3.047150   -1.369095   -0.149817
C     -1.530970   -0.362704   -0.371383
C     -0.731652    0.812436   -0.804908
C      1.128562    0.127992    0.289566
C      2.603879   -0.116216    0.190310
C     -3.225721    1.059331    0.694248
C     -3.022755   -0.039044   -0.293165
N     -3.567538    0.360269   -1.550307
O     -2.831255    0.947924    1.877065
O     -3.856993    2.244852    0.345529
O      0.604258    0.536190   -0.917200
H     -4.587061   -1.070725    0.796001
H     -4.037754   -1.935846   -0.700617
H     -3.033337   -1.953044    0.762575
H      6.379240   -0.832834   -0.087822
H      5.585574    1.435408    0.527740
H      4.755228   -2.632648   -0.522772
H      3.187349    1.856335    0.695407
H      2.360943   -2.173929   -0.345266
H     -1.278736   -0.623205    0.700060
H     -1.409663   -1.241216   -1.006919
H     -0.807223    1.659953   -0.055155
H     -1.103405    1.271492   -1.751757
H      0.888165    0.899641    1.049249
H      0.625535   -0.850164    0.537342
H     -3.315554    1.301566   -1.864151
H     -3.597138   -0.372820   -2.266747
H     -3.668957    3.101380    0.885238
