28

C     -0.942192   -0.953440    1.379716
C     -1.747915   -0.607499   -0.912705
C      1.101275   -1.582399   -0.921365
C      0.523186    1.410128    1.204403
C     -0.397010    1.816058   -0.999315
C     -0.740132    1.294868    0.376511
C      1.440848    0.274746    0.742040
C      0.595108    0.805801   -1.440517
C     -0.742577   -0.217528    0.111025
C      0.671115   -0.275837   -0.425761
O      1.676276   -0.635837    1.735748
O      1.237086    0.851882   -2.456691
H     -0.485890   -1.972276    1.350265
H     -0.611242   -0.393387    2.293681
H     -2.031651   -1.121100    1.518565
H     -1.561775   -1.669757   -1.178922
H     -1.711014   -0.037191   -1.846275
H     -2.758390   -0.572570   -0.470662
H      0.638667   -2.406036   -0.350533
H      0.766292   -1.703706   -1.981096
H      2.207983   -1.629576   -0.952123
H      1.033029    2.363549    0.878773
H      0.352189    1.404634    2.277201
H      0.061469    2.824406   -0.861597
H     -1.249119    1.939379   -1.661661
H     -1.632216    1.669010    0.821626
H      2.404279    0.647056    0.368978
H      1.902321   -1.523375    1.400692
