28

C      1.525714   -0.869288    1.184708
C      1.758824    0.512014   -0.889938
C     -0.154593   -1.802390   -1.256635
C     -0.584455    1.738462   -0.355785
C     -0.909020    0.333711    1.669692
C      0.084042    1.141069    0.867768
C     -1.161195    0.491483   -1.009987
C     -1.095354   -0.956008    0.898385
C      0.856784    0.003445    0.175300
C     -0.406700   -0.662019   -0.398702
O     -2.511778    0.437974   -0.598109
O     -1.663248   -1.932527    1.287281
H      1.272351   -0.571730    2.240583
H      1.306280   -1.930383    1.051906
H      2.632410   -0.674507    1.103232
H      1.367100    0.433380   -1.911364
H      2.689595   -0.126659   -0.871854
H      2.143074    1.550100   -0.667492
H      0.911832   -1.833327   -1.625613
H     -0.365477   -2.803946   -0.838082
H     -0.772325   -1.733582   -2.196156
H      0.212708    2.103233   -1.027782
H     -1.342893    2.477935   -0.110926
H     -1.906718    0.857107    1.708271
H     -0.582542    0.149963    2.692520
H      0.706401    1.807183    1.424210
H     -1.131156    0.523112   -2.097214
H     -2.879662    1.336194   -0.448216
