45

C      5.063542    0.435506    0.650620
C      2.846060   -1.436054   -1.473401
C      0.943457   -0.650135    2.339696
C     -1.810135    1.635588   -0.276114
C     -5.478115   -0.810262   -1.021070
C      4.291181    0.982494   -0.554285
C      2.804319    0.781428   -0.369530
C      0.931584   -0.776156   -0.133210
C     -1.127575   -0.347543    1.103444
C      2.426155   -0.654552   -0.221156
C      0.345450   -0.057075    1.055440
C     -1.887927    0.161397   -0.079862
C     -4.258352    0.120347   -1.014952
C     -3.343955   -0.215548    0.113746
C     -4.559402    1.316424   -0.221339
O     -5.036708    2.446132   -0.468918
O     -4.088232    0.656150    0.916604
H      4.971864   -0.668719    0.619835
H      4.650601    0.877249    1.582121
H      6.122009    0.690020    0.535811
H      2.635536   -0.831054   -2.389366
H      3.888343   -1.747899   -1.393717
H      2.224841   -2.351724   -1.558600
H      0.386612   -0.284824    3.226975
H      2.006928   -0.422942    2.442042
H      0.786276   -1.768425    2.342409
H     -2.314083    1.879789   -1.234813
H     -0.777391    2.023377   -0.366488
H     -2.365803    2.123056    0.561858
H     -6.092139   -0.659395   -1.927140
H     -6.133149   -0.593843   -0.146349
H     -5.132982   -1.859228   -0.901439
H      4.532848    2.063901   -0.589618
H      4.698698    0.513246   -1.446041
H      2.535386    1.306583    0.578668
H      2.305928    1.215216   -1.253325
H      0.594066   -1.831940   -0.067319
H      0.484895   -0.365450   -1.057065
H     -1.244655   -1.457281    1.118849
H     -1.567597    0.012200    2.055960
H      2.943986   -1.102638    0.635558
H      0.583238    1.014142    1.089577
H     -1.553590   -0.336562   -1.012452
H     -3.808091    0.274005   -1.999939
H     -3.423926   -1.298999    0.362897
