28

C     -0.936432    0.988530    1.457659
C     -2.006916    0.115548   -0.635721
C      0.551147    1.716637   -1.071681
C      0.901026   -1.010696    1.357026
C     -0.135294   -1.897683   -0.709297
C     -0.410948   -1.333794    0.655535
C      1.561460   -0.122134    0.321100
C      0.217933   -0.707738   -1.568967
C     -0.825218    0.101586    0.282541
C      0.440310    0.366819   -0.550358
O      2.321880    0.876442    0.870820
O      0.295790   -0.656911   -2.772236
H     -0.093445    1.677141    1.624659
H     -1.184487    0.384605    2.378206
H     -1.843751    1.644771    1.316503
H     -2.043823   -0.773112   -1.280354
H     -2.961645    0.210935   -0.071062
H     -1.959837    0.996402   -1.324063
H      1.614471    1.982286   -1.245926
H      0.176326    2.458558   -0.326129
H      0.009109    1.843939   -2.029492
H      0.718041   -0.364790    2.248306
H      1.482222   -1.907709    1.588577
H      0.820508   -2.494170   -0.659582
H     -0.947219   -2.487025   -1.126928
H     -1.129885   -1.848059    1.251918
H      2.255044   -0.801775   -0.254912
H      3.113633    1.041397    0.273860
