39

C     -1.444957    1.005439    0.687721
C     -0.762759    0.363593   -0.476463
C     -2.763248    1.603412    0.382047
C      0.581301   -0.223505   -0.020319
C      4.880771    1.300485    0.164701
C      5.887156   -0.811874    0.526574
C      3.739469    0.641619   -0.278224
C      4.754202   -1.432058    0.088011
C     -3.850881    0.742805   -0.109595
C      1.300443   -0.877235   -1.159474
C     -3.464902   -1.460107    1.185817
C      5.966589    0.579664    0.571818
C      3.625225   -0.729829   -0.334541
C     -5.809025   -0.703577    0.655773
C     -4.360207   -0.345190    0.744768
Cl     7.446523    1.322591    1.147291
O     -6.543839   -0.312564   -0.294768
O     -6.415733   -1.488860    1.620343
O      2.512369   -1.389641   -0.759172
O     -3.870111   -0.469235    2.053003
Na     0.000000    0.000000    0.000000
H     -0.775021    1.898114    0.957194
H     -1.379607    0.369336    1.575927
H     -0.563080    1.072940   -1.307433
H     -1.341446   -0.464691   -0.903286
H     -2.579623    2.387558   -0.415223
H     -3.063492    2.203208    1.283148
H      1.157853    0.579937    0.427188
H      0.380399   -1.055180    0.717936
H      4.913458    2.390484    0.188992
H      6.761818   -1.377770    0.854370
H      2.940197    1.293624   -0.614002
H      4.670639   -2.520264    0.046069
H     -4.723355    1.414289   -0.365267
H     -3.524807    0.305456   -1.099351
H      0.628603   -1.677288   -1.563748
H      1.456605   -0.085598   -1.955985
H     -3.939148   -2.480393    1.300786
H     -2.428379   -1.569696    0.847442
