28

C      1.580899    1.191768    0.456316
C      1.670797   -1.055714   -0.662225
C      0.002996   -1.119076    1.845221
C     -1.009713    1.491894   -0.593590
C     -0.738318   -0.627169   -1.755958
C     -0.034376    0.643235   -1.348197
C     -1.075366    0.915019    0.825290
C     -1.067901   -1.217144   -0.408401
C      0.828336    0.090785   -0.200240
C     -0.369147   -0.382884    0.638226
O     -2.373839    0.800434    1.272438
O     -1.768750   -2.189540   -0.187073
H      2.610622    1.211353    0.002219
H      1.152278    2.200107    0.208056
H      1.742724    1.057654    1.541384
H      2.092183   -0.777721   -1.666308
H      1.147539   -2.023598   -0.683719
H      2.553148   -1.149855    0.004712
H     -0.831411   -1.109291    2.563390
H      0.901348   -0.667944    2.305216
H      0.223577   -2.178143    1.575594
H     -2.040154    1.377769   -1.001121
H     -0.770509    2.562512   -0.583322
H     -0.015844   -1.247690   -2.304215
H     -1.656286   -0.405202   -2.336600
H      0.533417    1.127516   -2.113496
H     -0.503837    1.554638    1.503539
H     -2.784413   -0.073711    1.102863
