59

C     -9.357791   -0.058710   -0.375393
C     -0.049805    1.499627    2.251676
C      8.763676   -1.114081   -2.346776
C     -8.145308   -0.076432    0.522002
C     -7.285382   -1.272690    0.201665
C     -6.789200   -1.285587   -1.206469
C     -5.942259   -0.075289   -1.537001
C     -4.751078    0.023587   -0.670049
C      4.815656   -0.671208    0.959871
C     -3.499193    0.016018   -1.069522
C      3.665076   -0.759499   -0.011364
C      5.107960    0.726079    1.328119
C     -2.368660    0.118170   -0.152064
C      2.426657   -0.197679    0.681185
C      5.545000    1.620461    0.232010
C     -1.127421    0.105020   -0.600058
C      1.265381   -0.327562   -0.322490
C      6.816586    1.411780   -0.450127
C      0.043229    0.209853    0.342584
C      7.056426    0.254713   -1.276173
O      6.246648   -0.551602   -1.787193
O      0.162077    1.469361    0.873746
O      8.457128    0.004165   -1.544148
H     -9.076364    0.032678   -1.441941
H     -9.977806   -0.963920   -0.169396
H     -9.959485    0.841697   -0.083804
H      0.049545    2.524930    2.647770
H      0.804028    0.927594    2.699487
H     -0.956565    0.978201    2.556141
H      9.789113   -1.480250   -2.129010
H      8.683350   -0.852767   -3.430693
H      8.027107   -1.926261   -2.134082
H     -7.587018    0.856142    0.435289
H     -8.517940   -0.152886    1.570043
H     -6.429449   -1.374445    0.890770
H     -7.891545   -2.209386    0.336723
H     -6.115684   -2.170732   -1.308273
H     -7.582160   -1.380866   -1.960504
H     -6.576356    0.817338   -1.329451
H     -5.618404   -0.056900   -2.581302
H     -4.908749    0.113283    0.415308
H      5.700425   -1.220622    0.601739
H      4.500437   -1.259701    1.914789
H     -3.328162   -0.070902   -2.136425
H      3.447143   -1.787541   -0.325627
H      3.787465   -0.145207   -0.915769
H      5.902793    0.753782    2.171290
H      4.186961    1.181188    1.829867
H     -2.562972    0.205408    0.904572
H      2.211055   -0.684674    1.629709
H      2.504257    0.897962    0.851892
H      4.735191    1.654537   -0.593098
H      5.525001    2.712692    0.586262
H     -1.005354    0.015276   -1.670505
H      1.549843    0.226917   -1.230184
H      1.159953   -1.413084   -0.521392
H      7.027054    2.334507   -1.121858
H      7.648636    1.484863    0.365941
H     -0.200746   -0.477345    1.205068
