39

C      5.575963   -0.345350   -0.577674
C     -2.758530   -1.090142    0.971186
C     -1.874009   -1.826730   -1.170563
C      4.484237   -0.054987    0.111830
C      3.525571    0.949382   -0.382402
C      2.168540    0.316725   -0.592679
C      1.619011   -0.256737    0.678538
C      0.282813   -0.884388    0.495358
C     -3.391475    1.435444   -0.133238
C     -2.902780    0.375598   -1.055525
C     -0.990958    1.233298    0.905248
C     -0.754322    0.073974    0.000199
C     -2.328692    1.835403    0.793363
C     -2.080582   -0.609587   -0.259877
O     -2.572713    2.770966    1.560530
H      5.786345    0.148765   -1.517743
H      6.255542   -1.081872   -0.191330
H     -2.028993   -1.658312    1.576180
H     -3.535243   -1.838758    0.660018
H     -3.193859   -0.323413    1.610096
H     -1.117058   -1.599689   -1.947131
H     -2.862293   -2.021903   -1.639161
H     -1.628594   -2.714721   -0.572214
H      4.270636   -0.544525    1.051487
H      3.461960    1.772872    0.360813
H      3.893709    1.371369   -1.331819
H      2.268850   -0.436413   -1.391660
H      1.498641    1.129198   -0.989798
H      2.319000   -1.094506    0.973100
H      1.673819    0.464947    1.504214
H      0.386950   -1.687199   -0.276091
H      0.001315   -1.390146    1.434902
H     -4.318232    1.091483    0.399603
H     -3.744723    2.302941   -0.761051
H     -2.220656    0.869604   -1.802422
H     -3.692595   -0.113988   -1.653751
H     -0.242134    2.037186    0.655345
H     -0.816214    0.933238    1.945013
H     -0.418246    0.460972   -0.984719
