51

C     -3.187814   -1.899471   -1.061946
C     -3.542142    0.264389   -2.115792
C      1.965427    0.848519    1.113996
C      0.767539    0.332547    0.351660
C      6.149827    0.686648   -1.668202
C      2.693373   -0.276724    1.759054
C      6.484165    0.071408   -0.491979
C      4.850697    0.707107   -2.111423
C     -0.200476   -0.354474    1.276239
C      3.231107   -1.218363    0.718111
C      5.536208   -0.543757    0.281989
C      3.887337    0.076049   -1.314801
C     -1.404728   -0.889549    0.585668
C     -5.086780    1.139581    0.202618
C     -4.631860   -0.299008    0.073736
C     -2.655606    1.231631    0.925711
C      4.218206   -0.534314   -0.147782
C     -2.185557    0.180987   -0.084232
C     -3.833055    1.954401    0.385683
C     -3.397049   -0.420931   -0.784204
O     -3.863318    3.116540    0.088910
H     -4.080624   -2.222859   -1.653656
H     -2.317598   -2.071693   -1.742829
H     -3.172437   -2.513509   -0.160376
H     -3.987902    1.256700   -2.051393
H     -2.494431    0.394269   -2.514700
H     -4.035508   -0.414006   -2.848995
H      2.597049    1.370496    0.335755
H      1.633065    1.596921    1.874235
H      0.206553    1.209625   -0.098562
H      1.028851   -0.364320   -0.444084
H      6.904657    1.175534   -2.282673
H      2.087680   -0.864463    2.476676
H      3.555262    0.092038    2.388253
H      7.522306    0.080669   -0.182535
H      4.568706    1.183894   -3.030130
H     -0.460598    0.403647    2.066967
H      0.285492   -1.224264    1.800718
H      2.408198   -1.691878    0.156173
H      3.748428   -2.067852    1.244945
H      5.770812   -1.034762    1.210617
H      2.892812    0.117915   -1.708427
H     -1.033463   -1.570797   -0.239152
H     -2.017311   -1.557966    1.223021
H     -5.669750    1.479064   -0.674356
H     -5.684275    1.219129    1.122970
H     -4.340504   -0.631674    1.106373
H     -5.414326   -0.966181   -0.293966
H     -2.894543    0.759577    1.901266
H     -1.853826    1.976680    1.090017
H     -1.548279    0.706849   -0.812801
