42

C      6.196975    0.463792    0.001021
C     -1.703089   -1.730372    0.162444
C     -2.357017   -0.819145   -1.992171
C      4.020732   -0.778213    0.189850
C      4.087055    1.341219   -0.893540
C      2.661140   -0.842383   -0.060640
C      2.712661    1.251801   -1.134049
C      0.532305    0.141944   -1.012020
C     -0.291829    0.760327    0.060904
C     -4.062090   -0.487998    1.358574
C     -3.852053   -0.607656   -0.115515
C     -2.439995    1.443836    1.006250
C      4.734507    0.324162   -0.231903
C      1.984718    0.158566   -0.719984
C     -1.765994    0.774468   -0.173960
C     -3.105947    0.501225    1.896061
C     -2.384799   -0.568649   -0.473779
O     -2.882327    0.519231    3.085485
H      6.502207    1.529006    0.044069
H      6.528524   -0.093509    0.898872
H      6.731766    0.015980   -0.870559
H     -0.862208   -1.456698    0.831504
H     -2.418899   -2.276426    0.807011
H     -1.383496   -2.507666   -0.590274
H     -3.357177   -0.963757   -2.417238
H     -1.852409    0.052249   -2.445804
H     -1.717639   -1.705323   -2.239787
H      4.558461   -1.559871    0.706718
H      4.652792    2.199476   -1.219817
H      2.123219   -1.702290    0.272288
H      2.269013    2.088193   -1.659634
H      0.379708    0.745810   -1.941863
H      0.294699   -0.937425   -1.201463
H      0.017267    1.847975    0.101576
H      0.001052    0.370995    1.063784
H     -3.947352   -1.490366    1.821844
H     -5.123749   -0.161698    1.503343
H     -4.435021    0.143019   -0.698314
H     -4.242348   -1.629526   -0.404848
H     -1.668429    2.006099    1.565430
H     -3.176354    2.212066    0.636088
H     -1.958579    1.427530   -1.048603
