36

C      5.604923    0.120772    1.059655
C      4.829548   -0.912029    1.516858
C      5.194465    0.852947   -0.028721
C      0.853340   -0.004499   -0.231298
C     -0.506953   -0.242062   -0.830392
C      3.629196   -1.204037    0.865163
C      3.993744    0.543863   -0.662947
C      1.940086   -0.808496   -0.890815
C     -1.477944    0.641313   -0.052143
C     -3.807930    1.370074    0.222009
C     -5.149407    0.691833    0.272309
C     -3.361021   -0.903546   -0.161725
C      3.203006   -0.487455   -0.219515
C     -2.888285    0.480292   -0.575579
C     -4.814338   -0.743830    0.123527
O     -5.612969   -1.649667    0.221311
H      6.556066    0.362583    1.565207
H      5.113311   -1.510428    2.365221
H      5.820856    1.656031   -0.365551
H      0.801973   -0.330221    0.828919
H      1.113637    1.052618   -0.304216
H     -0.521972    0.014994   -1.907533
H     -0.814383   -1.296944   -0.723690
H      3.037212   -2.025727    1.248736
H      3.702239    1.140129   -1.515259
H      2.029415   -0.561502   -1.978505
H      1.775766   -1.901996   -0.816736
H     -1.198711    1.710699   -0.139546
H     -1.401897    0.374582    1.019812
H     -3.389812    1.383461    1.270086
H     -3.843161    2.403536   -0.141672
H     -5.803716    1.079303   -0.519663
H     -5.599754    0.909659    1.264302
H     -3.167301   -1.666900   -0.925178
H     -2.875056   -1.187248    0.798412
H     -2.964170    0.647898   -1.650845
