42

C      4.975560   -1.779552    0.227313
C      5.275283   -0.584393   -0.378264
C      3.965463   -1.863147    1.156379
C      1.599631    1.774078    0.272208
C      0.702599    0.561713    0.400586
C     -3.520652   -0.163332    0.816418
C     -4.484312   -0.988671    0.027933
C      4.566404    0.551927   -0.063095
C      3.250070   -0.731698    1.478763
C      2.779829    1.683990    1.221820
C     -0.427591    0.750159   -0.573744
C     -2.085720   -0.586799    0.712735
C     -4.859517   -0.137755   -1.197631
C     -2.300281   -0.249808   -1.786683
C      3.548121    0.458630    0.876045
C     -1.428320   -0.381163   -0.582471
C     -3.549873    0.484234   -1.611410
O     -3.631674    1.674694   -1.788860
H      5.534838   -2.670062   -0.023039
H      6.074403   -0.521703   -1.112310
H      3.741971   -2.827730    1.628628
H      0.985416    2.652476    0.551339
H      1.917977    1.858750   -0.774475
H      0.407652    0.435478    1.440578
H      1.287649   -0.336262    0.050282
H     -3.805590   -0.285422    1.903160
H     -3.639610    0.911888    0.608361
H     -5.447876   -1.133385    0.577381
H     -4.118506   -1.975849   -0.260438
H      4.770010    1.519067   -0.518235
H      2.451336   -0.814722    2.218192
H      3.428117    2.563208    1.117340
H      2.462409    1.615084    2.267433
H     -0.957346    1.691735   -0.258662
H     -0.061776    0.969943   -1.596417
H     -2.055606   -1.659915    1.062404
H     -1.544724   -0.027147    1.503596
H     -5.201055   -0.782115   -2.030093
H     -5.609254    0.619980   -0.945864
H     -1.701999    0.293408   -2.575154
H     -2.490437   -1.259025   -2.258523
H     -0.803018   -1.310785   -0.773712
