41

C     -3.103174    0.404468    1.093848
C     -3.874158   -1.012838   -0.726838
C     -2.997666    1.188980   -1.287379
C      1.941561    1.217948    1.444343
C      1.963363    1.748648   -1.011589
C     -0.369212    0.331613   -0.066601
C      3.370707   -1.425937   -0.475038
C     -1.487340   -0.596883   -0.513148
C      3.429385    0.034227   -0.087910
C      1.055318   -1.600720    0.553057
C      0.959112   -0.333596   -0.250525
C      2.473243   -2.105309    0.501397
C     -2.830673    0.041096   -0.341246
C      2.061579    0.644811    0.048853
O      2.801681   -3.002247    1.226533
H     -2.831779   -0.483704    1.708020
H     -4.191083    0.565141    1.207121
H     -2.553176    1.294326    1.399443
H     -4.837200   -0.557790   -0.999094
H     -3.994068   -1.742367    0.088587
H     -3.427035   -1.558215   -1.596990
H     -3.979197    1.689879   -1.136407
H     -3.004180    0.764340   -2.324940
H     -2.230060    1.957951   -1.226611
H      1.146615    0.757103    2.041156
H      1.847557    2.318877    1.338498
H      2.891455    1.067666    2.036216
H      1.526213    2.663652   -0.585897
H      2.967760    2.024088   -1.398588
H      1.358591    1.426740   -1.873667
H     -0.588433    0.604065    0.978889
H     -0.396937    1.273416   -0.650565
H      3.026594   -1.585098   -1.507313
H      4.389826   -1.842379   -0.336114
H     -1.382583   -0.860099   -1.593240
H     -1.464760   -1.513469    0.099332
H      4.011035    0.078724    0.867565
H      4.062943    0.545653   -0.844931
H      0.763022   -1.422777    1.591696
H      0.446566   -2.391480    0.048900
H      1.048585   -0.608506   -1.324836
