42

C      6.564586   -0.122910   -0.335314
C      5.950139    0.669760    0.622820
C      5.850840   -0.659696   -1.383245
C      1.623009   -0.366854    0.134489
C      0.153809    0.028806   -0.058777
C     -4.073524   -1.071343   -0.941938
C     -5.062555    0.032795   -0.926153
C      4.618404    0.932552    0.542018
C      4.502790   -0.374290   -1.436286
C      2.434565    0.682671   -0.599858
C     -0.699000   -0.986631    0.654935
C     -2.645621   -0.652181   -0.891718
C     -4.755703    1.167412   -0.026298
C     -2.421359    0.695482    1.119595
C      3.887699    0.411584   -0.488452
C     -2.155567   -0.677144    0.518269
C     -3.922937    0.825547    1.143968
O     -4.433522    0.625850    2.222758
H      7.615789   -0.344163   -0.291992
H      6.594283    1.048141    1.411324
H      6.345576   -1.278366   -2.125688
H      1.866304   -0.387957    1.202684
H      1.737928   -1.370056   -0.351046
H     -0.016746    0.072060   -1.138543
H     -0.009637    1.008143    0.401992
H     -4.245319   -1.782797   -0.094154
H     -4.243433   -1.673180   -1.870352
H     -6.057122   -0.403798   -0.629598
H     -5.242478    0.445613   -1.954447
H      4.143511    1.552729    1.293727
H      3.921843   -0.783344   -2.247944
H      2.117929    0.660300   -1.658137
H      2.158529    1.664894   -0.134818
H     -0.442811   -0.920173    1.735235
H     -0.465658   -2.026821    0.351569
H     -2.459144    0.323886   -1.406094
H     -2.042632   -1.397316   -1.467117
H     -5.708844    1.594086    0.356796
H     -4.254270    1.990512   -0.574600
H     -1.973113    0.828972    2.102902
H     -2.005570    1.428426    0.368188
H     -2.750969   -1.411200    1.086345
