45

C     -2.343094    0.154801   -1.764226
C     -2.864494   -1.750615   -0.370865
C      6.490359    0.039429   -0.258252
C      5.670944    1.125106   -0.338510
C      5.992898   -1.161987    0.180032
C      1.607159   -0.716692   -0.376080
C      0.122748   -0.887245   -0.093719
C      4.328956    1.010203    0.025547
C      4.655335   -1.263136    0.539387
C      2.371943   -0.320834    0.860991
C     -0.494483    0.380565    0.418071
C     -4.676959    0.614503    1.080041
C     -4.256222    0.231473   -0.312540
C     -2.391964    1.646468    1.228804
C      3.799518   -0.183555    0.469785
C     -1.964689    0.292227    0.717018
C     -3.832755    1.789464    1.428296
C     -2.823629   -0.235741   -0.386089
O     -4.310190    2.800816    1.850618
H     -2.215374   -0.708862   -2.447575
H     -3.132985    0.770778   -2.237623
H     -1.453259    0.816431   -1.744256
H     -3.910260   -2.092921   -0.226650
H     -2.457243   -2.190724   -1.305220
H     -2.284041   -2.092562    0.515827
H      7.548174    0.124059   -0.543651
H      6.093746    2.061668   -0.688885
H      6.671046   -1.999117    0.230392
H      1.982376   -1.710882   -0.687804
H      1.816689   -0.004630   -1.173635
H      0.051744   -1.686764    0.678895
H     -0.325554   -1.160706   -1.064929
H      3.708626    1.878788   -0.047426
H      4.312168   -2.224645    0.876466
H      2.295328   -1.044523    1.678021
H      2.059588    0.698268    1.221782
H      0.031157    0.577432    1.403814
H     -0.228294    1.267129   -0.189532
H     -5.742145    0.899723    1.035715
H     -4.528828   -0.223145    1.799538
H     -4.932884   -0.567579   -0.665579
H     -4.427578    1.113550   -0.961726
H     -2.067726    2.440778    0.510767
H     -1.890054    1.891247    2.188423
H     -2.055797   -0.398042    1.581053
