41

C      3.930070   -2.016806   -0.003810
C     -3.479684    0.406173    0.548221
C     -2.667368    1.173264   -1.617119
C      3.480072   -0.582992   -0.155764
C      2.587936   -0.211651    1.019328
C      2.129843    1.208174    0.888243
C      1.351332    1.543218   -0.310653
C      0.079228    0.884389   -0.643664
C     -1.522556   -1.829437    0.426205
C     -2.031840   -1.086181   -0.749694
C     -1.006887    0.454574    1.601212
C     -1.091783    1.002124    0.230239
C     -1.002653   -1.036428    1.528542
C     -2.327052    0.334435   -0.413460
O     -0.509158   -1.611029    2.502534
H      4.796093   -2.034484    0.705889
H      3.112749   -2.675474    0.331313
H      4.327370   -2.418406   -0.962452
H     -3.451322   -0.387905    1.305677
H     -3.541514    1.435108    0.966028
H     -4.450472    0.247461   -0.008673
H     -2.446538    2.229495   -1.355377
H     -3.749084    1.112081   -1.857856
H     -2.046454    0.915737   -2.501878
H      2.973357   -0.452136   -1.112054
H      4.394667    0.051662   -0.131692
H      1.795759   -0.950677    1.156326
H      3.217313   -0.256539    1.952369
H      1.754688    1.582545    1.827178
H      3.122664    1.795202    0.772537
H      2.043529    1.541357   -1.222411
H      1.116620    2.670516   -0.205970
H     -0.192142    1.232990   -1.713153
H      0.282594   -0.232855   -0.881404
H     -0.684907   -2.496756    0.066450
H     -2.302846   -2.520427    0.840686
H     -1.357286   -1.182914   -1.635993
H     -3.004284   -1.552731   -1.068213
H     -0.228346    0.822588    2.244294
H     -1.990788    0.780706    2.106604
H     -1.410920    2.112028    0.278736
