45

C     -3.858514    1.469399   -0.530682
C     -3.301993   -0.855451   -1.070819
C      5.581494   -1.584965    0.336569
C      5.251391   -1.750105   -1.001919
C      4.804564   -0.773233    1.111803
C      4.165050   -1.112080   -1.543142
C      1.844344    1.323029    0.806644
C      0.306968    1.892600   -1.095675
C      2.933625    0.676473    1.327082
C     -0.970621    1.146517   -1.181894
C     -2.842066   -1.299127    1.851264
C     -3.594543   -0.150563    1.243016
C      2.272931    0.360613   -1.303911
C     -0.752995   -0.357040    0.759403
C      1.464539    1.198635   -0.518816
C      3.713504   -0.137274    0.552410
C      3.359957   -0.279002   -0.766224
C     -1.603089    0.646691    0.040401
C     -1.669716   -1.557048    0.975410
C     -3.044036    0.238400   -0.113257
O     -1.449514   -2.632620    0.467685
H     -3.683556    1.739478   -1.580225
H     -3.664955    2.303529    0.176867
H     -4.920661    1.178458   -0.393226
H     -4.016229   -0.504411   -1.842698
H     -3.813238   -1.733000   -0.596182
H     -2.396979   -1.172306   -1.653008
H      6.436474   -2.077706    0.793274
H      5.854932   -2.384084   -1.615260
H      5.030109   -0.616154    2.171008
H      3.903722   -1.235246   -2.578030
H      1.265044    1.953563    1.467355
H      0.628015    2.248700   -2.136623
H      0.159348    2.822529   -0.465541
H      3.200608    0.797452    2.368482
H     -1.655625    1.780444   -1.814525
H     -0.752734    0.284406   -1.912699
H     -2.427642   -0.954481    2.830138
H     -3.472634   -2.192722    1.985825
H     -4.677690   -0.443573    1.118843
H     -3.599572    0.726045    1.897119
H      2.005368    0.236354   -2.357434
H     -0.416611   -0.014608    1.772315
H      0.057787   -0.742257    0.134467
H     -1.654557    1.535746    0.761276
