41

C      5.003671    0.966306    1.289788
C     -1.934758    0.620173    1.552969
C     -1.665372    2.322511   -0.164858
C      4.389494   -0.391236    0.968487
C      3.074326   -0.125818    0.245037
C      2.384659   -1.415683   -0.118046
C      1.104788   -1.134872   -0.848033
C      0.135589   -0.356923   -0.065684
C     -4.049314   -0.594818    0.134687
C     -3.506973    0.735115   -0.294182
C     -1.964354   -1.245872   -1.141712
C     -1.172727   -0.065479   -0.740958
C     -2.976776   -1.610852   -0.083204
C     -2.047421    0.856446    0.080498
O     -2.921343   -2.642537    0.536221
H      4.509032    1.761315    0.730146
H      4.870037    1.149248    2.390925
H      6.093165    0.985704    1.036489
H     -2.871852    0.996493    2.027946
H     -1.112170    1.214760    2.026970
H     -1.870349   -0.455113    1.830085
H     -1.085124    2.443402   -1.091035
H     -2.570772    2.964557   -0.152643
H     -1.025963    2.690025    0.683986
H      4.218808   -0.998924    1.856704
H      5.112089   -0.906621    0.303543
H      2.447100    0.542500    0.872202
H      3.334153    0.411728   -0.688476
H      3.090870   -1.938291   -0.833065
H      2.237048   -2.068836    0.769138
H      1.403812   -0.691328   -1.820033
H      0.664264   -2.145437   -1.110445
H     -0.074863   -0.891934    0.882796
H      0.603718    0.615754    0.239451
H     -4.918099   -0.921401   -0.472720
H     -4.291737   -0.567625    1.215351
H     -3.691944    0.975859   -1.355999
H     -4.045993    1.514712    0.294597
H     -2.574650   -0.980134   -2.038157
H     -1.379230   -2.130838   -1.448053
H     -0.924837    0.513962   -1.673941
