45

C     -2.211064   -0.091663   -1.714368
C     -1.999063   -1.725631    0.085953
C      4.848651   -0.411018    0.076477
C      4.121458    0.915159    0.056752
C      4.108679   -1.504239   -0.622109
C      2.728990    0.822746    0.609669
C      2.812756   -0.918019   -1.180436
C      0.610339   -0.051508   -0.417768
C     -0.194534    0.379941    0.765996
C     -4.398404    1.129002    0.458486
C     -3.923650   -0.236114    0.092640
C     -2.222291    1.134794    1.842785
C      2.048410   -0.369728    0.001921
C     -1.616984    0.718456    0.495823
C     -3.632366    1.550353    1.661008
C     -2.427288   -0.313149   -0.207450
O     -4.156815    2.234164    2.496134
H     -1.785773   -1.009886   -2.149080
H     -3.213186    0.036325   -2.210073
H     -1.539047    0.739537   -1.924214
H     -1.757917   -2.298554   -0.833784
H     -1.202472   -1.774120    0.856413
H     -2.859728   -2.260541    0.534049
H      5.073824   -0.660660    1.137537
H      5.807200   -0.243003   -0.482273
H      4.107187    1.361333   -0.954540
H      4.711988    1.604944    0.704830
H      3.789953   -2.240423    0.158687
H      4.685992   -1.976693   -1.425769
H      2.779420    0.670956    1.703741
H      2.198507    1.757405    0.369287
H      3.047843   -0.149400   -1.934738
H      2.197972   -1.695395   -1.668755
H      0.234594   -0.985838   -0.873259
H      0.717869    0.784112   -1.145040
H      0.286159    1.340958    1.132575
H     -0.040416   -0.312625    1.633285
H     -4.285975    1.844193   -0.380681
H     -5.479028    1.056863    0.666690
H     -4.097440   -0.912109    0.960169
H     -4.437665   -0.684346   -0.774379
H     -2.117776    0.281920    2.537685
H     -1.664227    1.993948    2.255479
H      1.957913   -1.210432    0.737454
H     -1.612594    1.677983   -0.103303
