57

C     -4.061702    1.361704    0.755031
C     -5.784759    0.216408   -0.540777
C     -3.670855    1.017086   -1.621285
C      5.294541    1.736385    0.658152
C      4.268328    1.763548   -1.558722
C     -4.139476   -2.486103   -1.329395
C     -4.049409   -1.863969    1.639449
C      0.575967    0.346481   -0.261557
C      0.226421   -0.590954    0.825181
C      2.007511    0.506962   -0.549750
C      4.280082   -1.470458    0.356802
C      4.763151   -0.400139   -0.534801
C     -1.308390   -0.687184    0.998817
C      3.154543    0.347717    1.734359
C      2.948073    1.047536    0.439141
C      3.378781   -1.095946    1.448467
C     -4.292288    0.409484   -0.382580
C      4.349781    0.996129   -0.239054
O      2.816353   -1.975130    2.119454
O     -1.841771   -1.144361   -0.206808
Si    -3.544219   -1.266438   -0.059766
H     -4.943936    2.066588    0.773529
H     -4.023570    0.868949    1.726386
H     -3.181256    2.026470    0.587173
H     -5.986507   -0.466066   -1.405885
H     -6.124427   -0.350555    0.358562
H     -6.326403    1.167450   -0.678738
H     -4.421621    1.606179   -2.166854
H     -3.203207    0.238901   -2.231516
H     -2.860315    1.743266   -1.338263
H      5.973021    1.064103    1.233584
H      5.979770    2.388133    0.043549
H      4.754269    2.462566    1.309790
H      3.963782    1.090021   -2.397701
H      5.318619    2.072531   -1.788583
H      3.649588    2.662866   -1.480745
H     -5.078153   -2.991660   -1.034986
H     -4.222393   -1.961990   -2.299747
H     -3.371845   -3.279910   -1.419785
H     -5.092190   -2.284041    1.534228
H     -3.430635   -2.714806    1.974248
H     -4.105330   -1.061753    2.378366
H      0.110175   -0.090312   -1.210190
H      0.029206    1.329942   -0.179341
H      0.588993   -0.323931    1.807751
H      0.519929   -1.621628    0.502190
H      2.053042    1.199743   -1.470187
H      2.390324   -0.464263   -1.014230
H      5.128374   -2.048362    0.836043
H      3.788194   -2.261828   -0.285911
H      4.586034   -0.635951   -1.631856
H      5.896568   -0.407063   -0.480937
H     -1.457394   -1.474565    1.766237
H     -1.722259    0.268234    1.325367
H      2.475030    0.572570    2.548403
H      4.185530    0.689721    2.124408
H      2.790327    2.151695    0.575948
