44

C     -3.509514   -1.465204    0.325862
C     -2.775679   -3.122314   -1.353128
C      5.973408    3.605017    2.515625
C      1.614901   -0.962586   -0.326576
C      5.180794    2.847791    3.326429
C      5.959778    3.376353    1.156511
C      2.592016    0.002660    0.325737
C      0.385005   -0.820641    0.533495
C      4.344036    1.845739    2.837712
C      5.136397    2.393837    0.676646
C      3.349218    0.722648    0.819138
C     -0.885902   -1.437028    0.177501
C     -4.190390    0.319367   -1.759307
C     -3.899297   -1.111891   -2.059271
C     -1.643908    0.470438   -1.227907
C      4.327624    1.628601    1.461136
C     -1.531077   -1.002896   -1.128869
C     -2.980359    0.997758   -1.345894
C     -2.919153   -1.657140   -1.062837
O     -3.177768    2.243231   -1.052797
H     -3.299868   -2.307292    1.006420
H     -4.625578   -1.394876    0.225413
H     -3.203897   -0.459837    0.754653
H     -1.984602   -3.647170   -0.827363
H     -2.773305   -3.298936   -2.481377
H     -3.761734   -3.586880   -1.022633
H      6.620687    4.390066    2.925348
H      2.035359   -1.955550   -0.401413
H      1.404760   -0.571243   -1.345647
H      5.202705    3.022653    4.385720
H      6.588718    3.979745    0.529346
H      0.292424    0.270813    0.833188
H      0.735106   -1.254195    1.556836
H      3.716803    1.229988    3.458812
H      5.119814    2.174794   -0.395690
H     -0.631254   -2.562433    0.027241
H     -1.555177   -1.458790    1.028890
H     -4.657366    0.799660   -2.674260
H     -4.946116    0.414296   -0.938641
H     -4.844217   -1.747553   -1.869836
H     -3.531804   -1.260821   -3.079772
H     -1.141183    1.006706   -0.376725
H     -1.102970    0.782050   -2.193133
H     -1.007435   -1.438940   -1.964581
