45

C     -1.610470   -2.001321    0.113034
C     -3.336548   -0.777242    1.268333
C      4.638831    0.160099   -0.162756
C      4.099097   -1.234819    0.056094
C      3.536999    1.199595   -0.105117
C      2.713221   -1.396883   -0.525414
C      2.467387    0.677406    0.805932
C      0.750984    0.010109   -0.796795
C     -0.314943    0.898486   -0.325950
C     -3.761857    0.923593   -0.988347
C     -2.916264   -0.312165   -1.084001
C     -2.214108    1.673427    0.897360
C      1.712441   -0.499210    0.214849
C     -1.294430    0.442915    0.669448
C     -2.973813    1.985152   -0.314154
C     -2.251768   -0.637570    0.211033
O     -2.994320    3.115201   -0.818631
H     -0.791026   -2.109795    0.820090
H     -1.381906   -2.271217   -0.937445
H     -2.359548   -2.796926    0.424440
H     -3.951333   -1.673135    1.025914
H     -4.005437    0.069107    1.355571
H     -2.811403   -0.987680    2.232872
H      5.167714    0.282384   -1.111588
H      5.326210    0.377039    0.682129
H      4.757678   -1.936138   -0.485934
H      4.073970   -1.532590    1.108416
H      3.204868    1.466077   -1.107988
H      3.938210    2.124974    0.362975
H      2.759406   -1.126583   -1.590818
H      2.432648   -2.453211   -0.442993
H      3.000738    0.274676    1.716849
H      1.769639    1.427016    1.178979
H      1.385376    0.637943   -1.503995
H      0.414694   -0.817764   -1.466942
H     -0.894280    1.224906   -1.242157
H      0.157679    1.867070    0.013908
H     -4.069822    1.236832   -2.011958
H     -4.702200    0.667028   -0.447368
H     -2.213901   -0.242175   -1.937994
H     -3.601205   -1.157236   -1.326107
H     -2.770913    1.605250    1.826492
H     -1.475544    2.517379    1.043766
H      1.328292   -1.076249    1.042971
H     -0.939042    0.176242    1.662994
