44

C     -2.895488   -1.954650   -2.388719
C     -3.579139    0.377285   -2.278789
C      6.998078    1.259196    2.645828
C      1.110752   -0.824472   -0.338835
C      5.850510    1.068256    3.383298
C      6.963524    1.020950    1.286755
C      2.369216   -0.405161    0.277859
C      0.465993    0.412901   -0.918666
C      4.675141    0.647114    2.798589
C      5.781643    0.600417    0.716271
C      3.397273   -0.041704    0.792282
C     -0.842481    0.119994   -1.585127
C     -4.629260   -0.107804    0.437049
C     -4.253565   -1.187773   -0.529101
C     -2.139253    0.483888    0.470239
C      4.618091    0.400967    1.429336
C     -1.859244   -0.472939   -0.665908
C     -3.554163    0.904525    0.536507
C     -3.127240   -0.778160   -1.444099
O     -3.880414    2.080415    0.673216
H     -2.470011   -2.814269   -1.865355
H     -3.886152   -2.203149   -2.817901
H     -2.252270   -1.585326   -3.221384
H     -3.248976    0.241862   -3.337916
H     -3.277288    1.362766   -1.909846
H     -4.690684    0.376971   -2.319041
H      7.922680    1.589786    3.101677
H      1.283475   -1.613173   -1.094258
H      0.500014   -1.275502    0.467081
H      5.894592    1.259185    4.445555
H      7.865342    1.170441    0.703750
H      1.159624    0.785452   -1.706908
H      0.433617    1.176732   -0.140453
H      3.764774    0.492790    3.367212
H      5.733221    0.407448   -0.350856
H     -0.640439   -0.488354   -2.477853
H     -1.252865    1.120056   -1.916528
H     -4.770541   -0.544842    1.459884
H     -5.587983    0.375879    0.153714
H     -5.137268   -1.377502   -1.188828
H     -4.006419   -2.114004    0.037827
H     -1.807830    0.046859    1.456991
H     -1.531610    1.416482    0.336478
H     -1.466977   -1.409835   -0.226937
