166

C     -5.289378    5.360838   -2.711998
C     -4.238524   -3.141752   -2.520139
C      9.993564    0.013278   -2.491330
C      5.826060    1.430010    3.472328
C     -2.755308    4.301847   -2.340247
C     -1.979791   -1.527700    2.069954
C     -6.224747    0.700382   -3.481112
C     -6.366275    2.192504    3.167298
C     -5.562645   -0.651702   -3.526775
C     -7.427273    1.406943    3.877439
C     -9.006751   -3.083092   -1.418848
C     -8.710928   -2.575541   -0.050209
C     -5.973475    2.998961   -2.730086
C     -6.634917   -3.718640   -1.928447
C     14.315941   -0.224731   -1.748017
C     -4.620643    0.657058    2.239669
C     -2.061550    1.758556   -1.671134
C     11.632708    0.572170    0.848588
C      1.687936    0.406428   -0.508128
C      8.510558    0.582237   -0.642409
C      7.143756    1.051645    1.375967
C      3.221980   -1.966803    1.111653
C      5.482634   -1.411059    0.270399
C     14.534244   -2.665269   -1.010617
C    -10.956491   -1.497326   -0.226257
C     -5.139206    4.039275   -1.994901
C     -5.509518   -2.809347   -2.299904
C      9.352581   -0.528217   -1.225059
C      6.759016    0.494803    2.730344
C     -3.755451    3.531117   -1.984551
C     -1.459670   -1.038292    0.735034
C     15.141068   -1.408498   -1.499421
C     -5.587643    1.594267   -2.408949
C     -5.793854    1.544394    1.952064
C     -7.830498   -2.929654   -2.368396
C     13.546290    0.441657   -0.687991
C     -6.135429   -1.460333   -2.365333
C     -8.331281    0.701882    2.883721
C     -3.502679    2.135747   -1.568927
C     12.508182   -0.381069   -0.026258
C      2.468172    0.248851    0.803922
C     -1.868970    0.331104   -1.231182
C      0.199945    0.484136   -0.224933
C     10.430579   -0.349452    1.042005
C      2.049187   -1.054940    1.433539
C      6.600151   -1.549396    1.269626
C     -4.559740   -0.395509    1.194499
C     10.365921   -1.053021   -0.245932
C      6.096127   -0.841432    2.469495
C     -0.062508   -0.489599    0.917623
C     -2.355571    0.070603    0.174483
C     -8.020254    1.269808    1.536690
C     -9.043877    0.946305    0.485304
C    -10.426370    1.241745    1.025843
C    -10.607329    0.645358    2.387453
C    -10.910538   -0.789477    2.016866
C     -9.542060   -1.340686    0.328931
C      8.160050    0.110957    0.776524
C      4.337654   -0.938689    1.088096
C    -11.706125   -0.579630    0.740533
O     15.601004   -3.632365   -1.041466
O     15.672923   -1.754131   -2.802996
O     12.938797    1.566665   -1.335490
O     -5.368892   -1.366778    1.271724
O    -13.030718   -0.897861    0.860505
O     -7.467981   -1.638698   -2.594084
O     -4.239941    1.326629   -2.432440
O     -6.748917    0.889086    1.177413
O     -0.505442    0.031279   -1.312489
O     -9.623170    0.830463    3.285091
O     11.603940   -0.966155   -0.869998
O      0.887902   -1.530319    0.869825
O     -3.676584   -0.389693    0.137155
O      3.795237    0.194884    0.494204
O      9.333812    0.302979    1.500640
O      7.831095   -1.204667    0.824368
O      4.747835   -0.623548    2.345017
O     -8.897982   -0.251975   -0.136347
O    -11.454116    0.709269    0.300634
O     -9.738882   -1.403420    1.687907
H     -4.751736    6.166318   -2.175546
H     -4.975377    5.279482   -3.753192
H     -6.396691    5.582160   -2.699408
H     -3.906661   -4.164367   -2.440440
H     -3.517653   -2.379492   -2.784274
H     10.970678   -0.493925   -2.646993
H      9.364170   -0.124929   -3.383281
H     10.222557    1.091403   -2.373609
H      6.114423    1.435242    4.544067
H      5.878712    2.463418    3.099553
H      4.774007    1.023276    3.450488
H     -1.716255    3.983352   -2.352628
H     -2.959750    5.321104   -2.643259
H     -2.826164   -2.193521    1.897921
H     -1.158643   -2.169231    2.493205
H     -2.137743   -0.726678    2.800938
H     -6.158357    1.194479   -4.473528
H     -7.295012    0.571272   -3.241949
H     -5.509397    2.299117    3.898655
H     -6.659819    3.223761    2.934982
H     -4.469436   -0.611733   -3.514051
H     -5.869552   -1.122089   -4.492450
H     -8.036477    2.156900    4.462029
H     -7.025869    0.716320    4.645657
H     -9.916434   -2.695475   -1.885654
H     -9.167370   -4.198211   -1.331426
H     -8.846520   -3.367154    0.737880
H     -7.654631   -2.253082    0.052892
H     -5.947456    3.166898   -3.827647
H     -7.026420    3.147426   -2.413798
H     -6.531150   -4.674818   -2.457999
H     -6.595431   -3.819164   -0.821690
H     15.014422    0.531865   -2.268439
H     13.616223   -0.458417   -2.635223
H     -3.677723    1.247404    2.285326
H     -4.697950    0.135309    3.214274
H     -1.786229    1.791884   -2.753156
H     -1.442186    2.432110   -1.064783
H     12.186272    0.727033    1.790650
H     11.403802    1.493914    0.321303
H      1.861244   -0.543884   -1.065159
H      2.042540    1.290192   -1.062233
H      9.138704    1.489228   -0.587314
H      7.624334    0.788894   -1.233061
H      6.303267    1.282945    0.725720
H      7.691085    2.028649    1.526158
H      3.356695   -2.685100    1.937009
H      3.134091   -2.421729    0.117966
H      5.720994   -0.701334   -0.544680
H      5.228329   -2.377151   -0.211918
H     14.141211   -2.686567    0.007056
H     13.742502   -3.015037   -1.700736
H    -11.240723   -2.548652   -0.103470
H    -11.034657   -1.117857   -1.266445
H     -5.494173    4.077530   -0.957773
H      8.653737   -1.329315   -1.544793
H      7.692649    0.343190    3.303711
H     -1.404981   -1.898582    0.061776
H     16.053580   -1.147305   -0.886343
H     -6.004423    1.234377   -1.446736
H     -5.399412    2.371151    1.289143
H     -8.173871   -3.368128   -3.346676
H     14.170540    0.912523    0.105793
H     -5.899963   -0.884123   -1.452196
H     -8.036499   -0.386083    2.964263
H     -3.849771    2.044220   -0.518111
H     12.904073   -1.084100    0.700211
H      2.246247    1.127371    1.418502
H     -2.387064   -0.378870   -1.893550
H     -0.041790    1.508585    0.084717
H     10.757466   -1.063630    1.855721
H      2.012618   -0.923862    2.517079
H      6.635631   -2.651504    1.527703
H     10.169753   -2.133246   -0.075015
H      6.281956   -1.450626    3.402240
H      0.081476    0.004286    1.900269
H     -2.196906    0.951451    0.817240
H     -8.005009    2.393322    1.658527
H     -8.889413    1.732833   -0.319855
H    -10.577258    2.346048    1.091282
H    -11.558529    1.063693    2.802311
H    -11.506309   -1.312897    2.782125
H     16.182348   -3.434206   -0.240841
H     14.905285   -2.210628   -3.243112
H     13.681377    2.202782   -1.465928
H    -13.665112   -0.223667    0.520503
