42

C      4.781061    2.414208   -0.084910
C     -4.041957    1.540446    2.334061
C     -2.676043    1.699757    2.402147
C      1.999537   -2.861689    0.233947
C     -4.551336    0.785716    1.272266
C     -1.793927    1.145773    1.467122
C      0.883587   -2.066872   -0.031782
C     -4.167250   -0.576182   -0.811937
C     -3.514743    0.042585   -2.037919
C      3.217090   -2.219997    0.319860
C      5.717039   -0.437937    0.433445
C      3.888313    1.214753   -0.049347
C     -3.684597    0.240860    0.352653
C     -2.312741    0.406168    0.429152
C      4.348940   -0.065947    0.189136
C     -2.024779    0.094686   -1.976453
C      0.943659   -0.712951   -0.206321
C     -1.463028   -0.226797   -0.613366
C      2.214886   -0.126685   -0.105302
N      2.569595    1.167152   -0.229931
N      3.285844   -0.889148    0.149671
O      6.067679   -1.627809    0.644051
O     -1.527976   -0.837884   -2.918779
O     -0.127778    0.093871   -0.467359
H      5.539988    2.285806    0.691319
H      5.281937    2.414500   -1.075879
H      4.198335    3.348205    0.074691
H     -4.673239    1.983913    3.073351
H     -2.273926    2.288609    3.229910
H      1.893145   -3.933775    0.363812
H     -5.615305    0.634567    1.178902
H     -0.724278    1.287681    1.545998
H     -0.071771   -2.568101   -0.099502
H     -5.254762   -0.373605   -0.908567
H     -3.924150   -1.637502   -0.701481
H     -3.859994   -0.519404   -2.932713
H     -3.901467    1.083627   -2.119956
H      4.087572   -2.848291    0.528259
H      6.500782    0.322824    0.441728
H     -1.679982    1.076247   -2.352285
H     -1.595647   -1.322458   -0.483935
H     -1.958312   -1.718920   -2.760321
