76

C     -5.935105   -3.748932    3.532606
C      5.745467   -3.060351   -1.294563
C     -4.084945   -2.281428   -0.126763
C     -4.376095    2.111888    0.501606
C     -5.495556   -3.146803    2.459110
C      4.789755   -2.387130   -2.272820
C      7.813233    0.038684    1.693086
C      7.770965    0.672581    0.469777
C      0.271801   -0.563291   -2.604066
C     -1.046687    4.935996    0.170449
C     -0.684181    0.027071   -1.824279
C     -1.047759    3.606379    0.511437
C      1.587921   -0.583803   -2.112113
C     -1.611983    5.284133   -1.020836
C      6.760728   -0.752924    2.111889
C      6.684298    0.533320   -0.361114
C     -5.416625   -1.669757    2.326460
C      4.848045   -0.888654   -2.144373
C      0.878927    0.557892   -0.143475
C     -2.142349    2.988050   -1.461341
C     -4.100203    0.276838    2.054317
C     -2.209799   -0.915183    0.579143
C     -3.350004   -1.774563    1.061999
C     -3.871066    0.714935    0.617692
C     -0.397889    0.587598   -0.600661
C     -1.585031    2.605414   -0.276919
C      1.920482   -0.037359   -0.899447
C     -2.159009    4.304490   -1.833793
C      5.682098   -0.874348    1.256205
C      5.640461   -0.249530    0.050533
C     -1.514422    1.234684    0.195690
C      3.242924    0.006840   -0.342162
F      4.616953   -1.645767    1.627779
N     -4.124651   -1.147953    2.087743
N      4.480257   -0.383845   -0.855948
N     -2.626636    0.385605    0.077717
O     -2.732019    4.717653   -3.056551
O      3.329083    0.500775    0.867239
H     -6.268953   -3.185990    4.392837
H     -5.975984   -4.824603    3.586601
H      6.107905   -3.982257   -1.786866
H      5.238906   -3.352608   -0.359834
H      6.621838   -2.380644   -1.135468
H     -3.718406   -1.793562   -1.082715
H     -5.166598   -2.188619   -0.131368
H     -3.868969   -3.374839   -0.336142
H     -4.773737    2.375428   -0.518371
H     -3.773570    2.893344    0.968044
H     -5.336389    2.120992    1.117584
H     -5.171642   -3.761144    1.627645
H      5.086696   -2.653653   -3.303128
H      3.780986   -2.780350   -2.046520
H      8.649841    0.119328    2.382208
H      8.626121    1.290002    0.177192
H      0.063254   -1.010902   -3.570888
H     -0.605164    5.666603    0.842208
H     -1.707059    0.044655   -2.198169
H     -0.583996    3.355807    1.479984
H      2.334710   -1.059159   -2.720279
H     -1.635378    6.310789   -1.330288
H      6.777074   -1.262009    3.075820
H      6.680579    1.048926   -1.326886
H     -6.164921   -1.335277    1.578794
H     -5.777028   -1.245154    3.306673
H      5.973160   -0.646502   -2.312968
H      4.367236   -0.350830   -2.958340
H      1.068580    1.009635    0.825070
H     -2.579642    2.267452   -2.124522
H     -5.017908    0.762227    2.406640
H     -3.242181    0.676026    2.644413
H     -1.487654   -0.822583    1.424271
H     -1.689908   -1.508286   -0.201643
H     -2.861383   -2.666852    1.551958
H     -4.642307    0.106116    0.037619
H     -1.152698    1.184792    1.249801
H     -3.726792    4.974493   -3.110305
