73

C     -7.013832    1.275957    1.098659
C      5.452838   -3.011000    1.845813
C     -4.333135    2.252351   -1.854071
C     -2.663912    0.075378    1.797812
C     -6.610496    2.498961    0.940633
C      5.608253   -2.398367    0.487504
C      1.752163    2.029464   -0.462778
C     -1.032016   -3.433790   -3.171222
C      7.144605    1.796611    0.235984
C      0.507438    1.581086   -0.816231
C     -0.942504   -2.069547   -2.871540
C      2.774127    1.100510   -0.200775
C      7.048876    2.336485    1.497155
C      6.414146    0.679922   -0.112754
C     -1.413048   -4.365562   -2.229921
C     -5.235068    2.890071    0.721049
C      1.218110   -0.636406   -0.668294
C     -1.615794   -2.568290   -0.685414
C      5.477698    0.618776    2.050770
C     -2.952792    2.220952    0.737115
C     -3.553312    0.047174   -0.994489
C     -4.477611    1.220075   -0.785969
C     -2.095526    0.959112    0.666360
C      0.202295    0.244317   -0.929609
C     -1.239060   -1.626422   -1.607466
C      2.520127   -0.239112   -0.300056
C      6.198676    1.733994    2.420108
C      5.561499    0.054322    0.770687
C     -1.713215   -3.919587   -0.951299
C     -1.154202   -0.175116   -1.307939
C      3.536259   -1.232628   -0.027897
F      6.089309    2.253598    3.674337
N     -4.341993    1.748562    0.576412
N      4.846217   -1.102893    0.405593
N     -2.223022    0.292715   -0.544516
O     -2.104461   -4.851742    0.023704
O      3.102899   -2.459052   -0.240308
H     -8.079905    1.075981    1.257173
H     -6.376787    0.392272    1.118380
H      4.432820   -2.816326    2.218629
H      5.703323   -4.080191    1.764044
H      6.221493   -2.531578    2.507111
H     -3.955201    1.719223   -2.777956
H     -5.328747    2.686409   -2.126317
H     -3.644825    3.065602   -1.676738
H     -3.634521   -0.311637    1.442542
H     -1.955104   -0.688311    2.112002
H     -2.873066    0.720601    2.696111
H     -7.378257    3.301774    0.976252
H      5.280172   -3.068558   -0.333074
H      6.681800   -2.177653    0.317638
H      2.004907    3.075853   -0.369110
H     -0.790912   -3.750558   -4.179124
H      7.819818    2.285697   -0.474141
H     -0.244089    2.322757   -1.012741
H     -0.633020   -1.396812   -3.683698
H      3.749232    1.473707    0.067794
H      7.602937    3.215194    1.822926
H      6.520003    0.280153   -1.129396
H     -1.480780   -5.433516   -2.472557
H     -4.853753    3.441659    1.626474
H     -5.091606    3.620259   -0.111516
H      0.983801   -1.691853   -0.756280
H     -1.861419   -2.279534    0.328513
H      4.802871    0.115031    2.734158
H     -2.664285    3.001791    0.054048
H     -2.882901    2.585534    1.781523
H     -3.528389   -0.158604   -2.084535
H     -3.944159   -0.861598   -0.499509
H     -5.500940    0.822650   -0.879767
H     -1.073551    1.235974    0.921878
H     -1.300293    0.306401   -2.352169
H     -1.467205   -5.318673    0.627126
