53

C      5.379522   -1.422840    0.450215
C      2.671241    0.050725    1.801388
C      0.626912    1.789465   -1.853632
C      5.165981   -0.275294   -0.117027
C     -3.773109    2.743728   -2.169228
C     -3.587461    1.532027   -2.796506
C     -3.101040    2.976947   -0.991641
C     -3.217381   -2.867862    1.294431
C     -2.752947    0.583641   -2.258179
C     -2.266745    2.029646   -0.452360
C     -2.543782   -2.141737    0.336019
C     -3.275947   -2.353602    2.589407
C      3.867476    0.141080   -0.692030
C     -2.020185   -0.472458    1.907778
C      1.740592   -0.315597   -1.475499
C      0.664539   -0.881950    0.709378
C      2.170415   -0.866126    0.726077
C      1.034017    0.817851   -0.789619
C     -2.079739    0.822438   -1.073939
C     -1.932316   -0.937617    0.608451
C     -2.680405   -1.157376    2.903416
C     -1.193339   -0.148097   -0.448191
N      2.792571   -0.767900   -0.553774
N      0.057063    0.289165    0.070192
O     -2.744123   -0.652584    4.203126
H      4.634263   -2.190699    0.559100
H      6.376847   -1.640424    0.846767
H      1.902696    0.789515    2.134619
H      3.646389    0.500291    1.635932
H      2.798533   -0.583024    2.734597
H      1.592082    2.013548   -2.416018
H      0.006095    1.280675   -2.585237
H      0.305163    2.771397   -1.502442
H      5.989672    0.447383   -0.185784
H     -4.406632    3.522015   -2.533814
H     -4.123092    1.358869   -3.723515
H     -3.216751    3.934483   -0.452784
H     -3.694804   -3.819339    1.067308
H     -2.618891   -0.380486   -2.779347
H     -1.769340    2.301529    0.492359
H     -2.499417   -2.543610   -0.671556
H     -3.801083   -2.919912    3.346806
H      3.668400    1.161067   -0.276074
H      4.101633    0.363296   -1.782075
H     -1.562236    0.465014    2.190307
H      1.045636   -1.149229   -1.716060
H      2.269930    0.029793   -2.393408
H      0.303903   -1.802261    0.210103
H      0.391068   -0.971749    1.780207
H      2.424900   -1.909604    1.089759
H      1.725443    1.423654   -0.143136
H     -0.944396   -0.916536   -1.243989
H     -3.547823   -0.051333    4.389122
