41

C      4.814282   -1.282269    1.693200
C     -4.548266    2.245369    0.316074
C     -3.315827    2.523814    0.831712
C      0.654040    1.034355   -1.925448
C     -4.858137    0.929644    0.040979
C     -2.397784    1.507121    1.072472
C     -0.256240    0.386469   -1.099730
C      5.008242    0.543139   -0.844912
C      5.568694    1.661253   -0.094300
C      1.998666    0.933436   -1.664074
C     -4.068246   -1.536401    0.076223
C      3.664308   -0.775331    0.879533
C     -3.940804   -0.073866    0.283313
C     -2.693024    0.194761    0.803354
C      3.748542    0.017559   -0.224535
C     -2.629834   -1.969263   -0.057869
C      0.222822   -0.336439   -0.043944
C     -1.935803   -1.109649    0.960219
C      1.604498   -0.390669    0.155096
N      6.021829    2.532577    0.511182
N      2.359265   -1.016771    1.101038
N      2.487729    0.232397   -0.638749
O     -2.465056   -3.329059    0.183370
O     -0.577399   -0.991079    0.805217
H      5.751495   -1.106824    1.144847
H      4.787403   -0.749214    2.659360
H      4.705220   -2.358430    1.898753
H     -5.309930    3.001176    0.105860
H     -3.050086    3.545210    1.055151
H      0.254669    1.593025   -2.743822
H     -5.836139    0.708819   -0.367787
H     -1.437734    1.760144    1.478112
H     -1.335650    0.467072   -1.328501
H      4.846778    0.794992   -1.913737
H      5.799539   -0.256253   -0.844412
H      2.718253    1.439915   -2.308653
H     -4.672627   -1.784131   -0.821334
H     -4.461296   -2.027604    1.000699
H     -2.305795   -1.705780   -1.102216
H     -2.224184   -1.475195    1.986160
H     -2.696414   -3.778021   -0.690833
