45

C      5.889037   -0.263616    0.539311
C      5.659903   -0.812756   -0.875204
C      4.831193    0.821317    0.589585
C      4.130132   -0.931397   -0.859413
C     -2.758106    0.627405   -0.055178
C     -2.873717   -1.690036   -0.399816
C     -4.991046    1.054260    0.912252
C     -0.001553   -1.393956   -1.538986
C     -4.245942    0.253485   -0.109460
C     -2.192523   -0.454316   -0.956637
C     -4.187215   -1.208725    0.196304
C      1.309418   -0.108906   -0.417126
C      2.342861    0.574639    0.205025
C      0.031547    0.289897   -0.196258
C      0.776788    2.012438    1.231092
N      0.531750    3.024437    2.018054
N      1.303540   -1.160502   -1.254569
N      2.034592    1.605644    1.002351
N     -0.215657    1.350261    0.629048
N      3.695315    0.165128   -0.018745
N     -0.772974   -0.519292   -0.901100
O     -6.332684    0.737454    0.884951
O     -5.259763   -1.911491   -0.353632
H      5.608457   -1.064264    1.253567
H      6.906635    0.113897    0.665482
H      6.146898   -1.773938   -1.032652
H      5.945470   -0.036041   -1.585506
H      5.146509    1.660696   -0.081593
H      4.633613    1.160734    1.622919
H      3.901352   -1.896002   -0.372063
H      3.723018   -0.854486   -1.888506
H     -2.593894    1.634805   -0.428180
H     -2.390527    0.448941    0.978051
H     -3.069668   -2.362670   -1.253952
H     -2.241915   -2.199972    0.363366
H     -4.508127    0.935588    1.886728
H     -4.900361    2.127410    0.621707
H     -0.307890   -2.202352   -2.205581
H     -4.565240    0.423124   -1.142583
H     -2.589848   -0.244567   -1.974612
H     -4.140957   -1.384804    1.293759
H     -0.467742    3.282722    2.148109
H      2.832896    2.106297    1.461153
H     -6.447434   -0.240711    0.878889
H     -5.326143   -1.695778   -1.305155
