32

C     -0.573417    2.324458   -0.766503
C     -1.229780   -2.607591   -0.139216
C      1.774542    0.535765    0.941189
C     -2.860333    0.382203    1.515134
C     -2.221894    1.440580    0.900312
C     -2.536777   -0.922214    1.176092
C      1.348619   -0.744923   -1.152968
C     -1.258358    1.197604   -0.055037
C     -1.580556   -1.197803    0.228347
C      2.192467    0.317288   -0.495767
C     -0.943415   -0.117098   -0.383974
N      3.592674   -0.114848   -0.433028
O      0.005086   -0.443100   -1.318012
Cl     0.683282    0.000000    0.000000
H     -0.073870    1.948093   -1.682045
H      0.036517    2.953173   -0.121342
H     -1.401277    2.984944   -1.162662
H     -0.529524   -3.037266    0.607125
H     -2.157382   -3.189439   -0.189760
H     -0.761559   -2.632530   -1.150385
H      1.482053    1.574567    1.128001
H      2.635431    0.230322    1.592631
H      0.954366   -0.197718    1.163708
H     -3.620927    0.574365    2.269279
H     -2.472864    2.474115    1.163646
H     -3.042960   -1.761068    1.662867
H      1.394947   -1.655549   -0.471548
H      1.805974   -1.066776   -2.134402
H      2.108457    1.252712   -1.080343
H      3.718232   -1.086791   -0.764218
H      4.215529    0.584526   -0.847119
H     -0.683282    0.000000    0.000000
