32

C     -0.902437    0.615576   -2.380256
C     -1.204818   -1.192047    2.217564
C      3.697454    0.607960    0.651356
C     -3.795464    0.316052   -0.012944
C     -3.038408    0.595109   -1.123928
C     -3.194030   -0.265119    1.070781
C      1.295598    0.268788    0.351656
C     -1.670309    0.293714   -1.158384
C     -1.842446   -0.560324    1.030495
C      2.646000   -0.403113    0.208425
C     -1.063695   -0.290226   -0.070798
N      2.865015   -0.746934   -1.163897
O      0.258957   -0.594073   -0.073575
Cl     0.685751    0.000000    0.000000
H     -1.561530    1.001090   -3.164891
H     -0.209845    1.464379   -2.116700
H     -0.356463   -0.259378   -2.763860
H     -0.668174   -0.388192    2.777882
H     -1.959086   -1.630889    2.891632
H     -0.514440   -2.006247    1.919793
H      4.686766    0.154637    0.793321
H      3.780594    1.374908   -0.149057
H      3.339470    1.111805    1.550172
H     -4.847895    0.563126   -0.023720
H     -3.473412    1.053000   -1.999687
H     -3.788798   -0.485255    1.945796
H      1.345916    1.197985   -0.252898
H      1.155412    0.591324    1.407639
H      2.675641   -1.310940    0.843286
H      3.845584   -1.000099   -1.358729
H      2.498843   -0.076615   -1.846472
H     -0.685751    0.000000    0.000000
