30

C      2.727245   -1.321011    0.684425
C     -2.933372   -1.468192    0.897196
C      0.313292    2.180661    1.009338
C     -0.379922    1.945793   -1.307862
C      1.598700   -0.359558    0.979386
C     -0.877165   -1.602539   -0.425062
C      0.323594   -1.018347   -1.062244
C     -1.717465   -0.851831    0.257028
C      0.914485    0.111611   -0.282556
C     -1.431466    0.567769    0.366081
C     -0.118815    1.165297   -0.011852
O     -2.319382    1.330731    0.794966
H      3.525419   -0.877845    0.066731
H      2.356898   -2.293682    0.310921
H      3.204314   -1.546621    1.675885
H     -3.788658   -1.454810    0.202475
H     -2.690762   -2.531615    1.133181
H     -3.176061   -0.904360    1.805254
H      1.383341    2.385159    1.020146
H     -0.191541    3.173718    0.827724
H     -0.068257    1.843262    2.004888
H     -0.716634    2.978400   -1.080420
H      0.564519    2.036991   -1.890565
H     -1.178874    1.474878   -1.908028
H      0.903425   -0.899308    1.654976
H      2.056825    0.516995    1.485321
H     -1.100596   -2.672174   -0.502245
H      0.045298   -0.671686   -2.073120
H      1.076656   -1.822062   -1.205570
H      1.694958    0.584374   -0.929301
