30

C     -3.025942    1.175840    0.467689
C      3.604396    0.698240    0.382366
C     -0.164602   -2.226489    0.581974
C     -0.288410   -1.290839   -1.667387
C     -2.136697    0.206709   -0.220470
C      1.346638    1.569565    0.345139
C     -0.105340    1.527472    0.169247
C      2.146244    0.533881    0.174919
C     -0.722329    0.181904    0.320863
C      1.535973   -0.712944   -0.209208
C      0.075389   -0.950278   -0.220766
O      2.275238   -1.672654   -0.560248
H     -2.800612    1.333593    1.536314
H     -3.042360    2.150637   -0.100308
H     -4.071636    0.799732    0.417634
H      4.169288   -0.191336    0.076383
H      3.917405    1.616265   -0.168243
H      3.737383    0.928564    1.472308
H     -0.585911   -3.033913   -0.015869
H     -0.891013   -2.026190    1.409586
H      0.750763   -2.598436    1.063008
H      0.469457   -2.040423   -1.989936
H     -1.269691   -1.817575   -1.721799
H     -0.210819   -0.432912   -2.332595
H     -2.163342    0.432421   -1.306725
H     -2.589184   -0.820357   -0.106673
H      1.808706    2.517780    0.636697
H     -0.542973    2.189676    0.955645
H     -0.392210    1.956212   -0.820870
H     -0.833809   -0.004145    1.431325
