43

C      6.739114   -0.980463   -0.292743
C      3.026937    0.653041   -1.108150
C      2.370267    0.353992    1.149911
C     -0.533594   -0.703161    0.198888
C     -3.270856    1.014635    0.544640
C      4.264422    0.101508   -0.807663
C      3.618550   -0.203123    1.455980
C     -1.824518   -1.435687    0.098415
C     -4.720139    0.593191    0.664003
C      0.751165    1.356763   -0.379113
C     -1.488942    1.137425   -1.236570
C      2.072680    0.780557   -0.123397
C     -0.298352    0.357876   -0.813196
C     -2.814499    0.611955   -0.833808
C      4.555620   -0.323479    0.468945
C     -2.781534   -0.871966   -0.918829
C     -4.973766   -0.723705    0.024420
N     -4.116512   -1.376726   -0.678404
O     -6.259697   -1.270287    0.222206
O      5.791974   -0.869338    0.747866
H      7.674710   -1.449855    0.097994
H      6.939750    0.049004   -0.669316
H      6.384509   -1.605747   -1.137313
H      2.866803    0.964954   -2.129675
H      1.687627    0.415162    1.984690
H     -0.470957   -0.247372    1.209038
H      0.297988   -1.438023    0.153695
H     -3.141537    2.104539    0.633922
H     -2.729765    0.526150    1.366146
H      5.031146   -0.009992   -1.561908
H      3.873605   -0.544821    2.449352
H     -2.365722   -1.457045    1.067861
H     -1.674090   -2.502916   -0.184895
H     -5.364325    1.396478    0.218434
H     -5.028748    0.491030    1.729585
H      0.417226    1.952993    0.494842
H      0.879054    2.101445   -1.217689
H     -1.512413    1.275697   -2.359784
H     -1.453126    2.209514   -0.870551
H      0.130730   -0.118655   -1.746168
H     -3.582715    0.994549   -1.538697
H     -2.416265   -1.182601   -1.920781
H     -6.551803   -2.127496   -0.224013
