21

C     -1.991025    0.559172    1.149087
C      2.350611   -2.060315    1.177020
C     -0.371325    0.416374   -2.298189
C     -1.819970    0.399257   -0.344411
C      2.500075   -0.761583    1.255217
C     -0.403383    0.603895   -0.788987
C      1.588285    0.175433    0.603236
O      1.786186    1.394930    0.716649
O      0.509111   -0.249901   -0.138138
H     -1.323934    1.347689    1.553063
H     -3.044660    0.777892    1.406893
H     -1.731501   -0.415521    1.611456
H      3.033185   -2.717415    1.664225
H      1.533392   -2.462240    0.617152
H     -1.337852    0.829831   -2.680801
H     -0.383460   -0.668290   -2.495270
H      0.450008    0.953213   -2.781189
H     -2.432513    1.200046   -0.819404
H     -2.162199   -0.590132   -0.647475
H      3.335920   -0.381141    1.828399
H     -0.084951    1.648807   -0.588531
