39

C     -5.515345    2.364126    0.494017
C      5.043206    0.660641    0.773526
C      2.679176    0.659332    1.345319
C      3.417194    1.360847   -0.925002
C     -4.930446    1.014900    0.843253
C     -1.720407   -2.346091   -0.400039
C     -0.411296   -2.455572   -0.518975
C     -0.923481   -0.172997   -0.633046
C     -2.208163   -1.002348   -0.862868
C      0.094652   -1.189992   -1.076413
C     -3.268408   -0.575557    0.082122
C      2.467372   -1.457036   -0.766620
C      3.643018    0.410318    0.207467
N      1.393544   -0.820097   -0.577728
O     -3.612931   -1.289803    1.055890
O      2.434359   -2.624696   -1.517898
O     -3.919648    0.637932   -0.081051
O      3.630077   -0.945068   -0.204895
H     -5.522573    2.456696   -0.617369
H     -6.536766    2.413798    0.911644
H     -4.837886    3.134143    0.954128
H      5.800762    0.667971   -0.032542
H      5.069192    1.575980    1.397100
H      5.324671   -0.214526    1.428854
H      1.701145    1.009180    0.953135
H      3.092820    1.472878    1.995410
H      2.585263   -0.235938    1.978767
H      3.423215    0.865212   -1.920521
H      2.449811    1.881886   -0.731801
H      4.190010    2.142665   -0.935575
H     -5.725581    0.220919    0.918778
H     -4.434344    1.048877    1.840525
H     -2.399828   -3.112783   -0.017808
H      0.182901   -3.357366   -0.239733
H     -0.930138    0.741383   -1.243492
H     -0.889298    0.025466    0.457934
H     -2.510389   -0.994775   -1.908665
H      0.061917   -1.177798   -2.196523
H      1.612623   -2.792708   -2.087619
