53

C      5.991714    0.848686   -0.693716
C      2.464646   -0.869119   -2.263240
C      0.988842   -1.148533    2.227797
C      5.031334    0.699772    0.198527
C     -3.540878   -2.140989   -1.406474
C     -2.745647   -1.046378   -1.042484
C     -3.758607   -3.136197   -0.505608
C     -1.841004    2.187611   -0.970888
C     -2.894993    2.118384    1.115359
C     -2.494746    3.372842   -1.222550
C     -3.543087    3.280420    0.881727
C      4.113877   -0.486102    0.089843
C     -2.434579   -2.000358    1.087689
C      2.222112    0.671616    1.060020
C      0.606142    0.126641   -0.918995
C      1.889883   -0.736157   -0.861555
C      0.877336    0.131395    1.473124
C     -2.007946    1.501219    0.210143
C     -2.185439   -0.964924    0.207108
C     -3.351126    3.932909   -0.304024
C     -3.211720   -3.083119    0.751117
C     -1.348344    0.229882    0.565488
Br    -4.265128    5.574771   -0.638089
N      2.795801    0.013332   -0.060722
N      0.017251    0.089993    0.329885
O     -3.395247   -4.067786    1.722031
H      6.668036    1.702869   -0.631467
H      6.093567    0.120554   -1.478268
H      3.090752   -1.796507   -2.273360
H      3.130069   -0.043545   -2.527714
H      1.661030   -1.039347   -3.016819
H      2.048889   -1.380078    2.504123
H      0.502957   -2.017048    1.704028
H      0.449822   -1.106525    3.222744
H      4.919581    1.432018    0.991420
H     -3.968939   -2.179864   -2.396204
H     -2.541752   -0.234699   -1.718915
H     -4.367607   -3.999379   -0.741591
H     -1.179584    1.771270   -1.713915
H     -3.061371    1.612848    2.068148
H     -2.333234    3.875434   -2.160518
H     -4.216077    3.676800    1.658253
H      4.444123   -1.174344   -0.692105
H      4.183599   -0.975122    1.107793
H     -2.000096   -1.954046    2.083438
H      2.091761    1.777983    0.880000
H      2.887177    0.566838    1.955087
H      1.023377    1.157742   -1.122489
H      0.009763   -0.282326   -1.730322
H      1.672654   -1.743597   -0.503572
H      0.422127    0.886012    2.181334
H     -1.410146    0.202407    1.709874
H     -4.200926   -3.956157    2.349412
