39

C      3.937394    2.890983   -0.562269
C     -4.660361    1.539227    1.013852
C     -4.026983    0.755338    1.958685
C      1.996376   -2.541916    1.164027
C     -4.303593    1.449560   -0.324649
C     -3.035094   -0.112980    1.528295
C      0.763178   -2.128425    0.645102
C      3.058286   -1.686873    1.104614
C     -2.737737    0.282633   -2.088050
C      5.333408    0.483960    0.835680
C      3.316548    1.582479   -0.189534
C     -3.309424    0.578539   -0.752257
C     -2.682678   -0.198991    0.192510
C      3.943320    0.517781    0.431414
C     -2.109554   -1.068551   -1.943188
C      0.697744   -0.878190    0.104118
C     -1.654756   -1.055889   -0.481759
C      1.840503   -0.055094    0.080749
N      2.046399    1.192266   -0.382876
N      3.014655   -0.462616    0.580609
O      5.794116   -0.533351    1.390189
O     -2.993308   -2.114258   -2.089613
O     -0.458707   -0.392217   -0.423565
H      3.129733    3.552453   -0.939939
H      4.628966    2.715375   -1.429907
H      4.455598    3.354900    0.294171
H     -5.432115    2.219578    1.323424
H     -4.282089    0.801982    3.008701
H      2.039929   -3.528734    1.588754
H     -4.806734    2.066678   -1.045466
H     -2.525668   -0.736862    2.253180
H     -0.084539   -2.827502    0.699396
H      4.015118   -2.027450    1.515499
H     -3.528389    0.251622   -2.870159
H     -1.939663    1.008670   -2.343241
H      5.967296    1.329099    0.660332
H     -1.206917   -1.199255   -2.584628
H     -1.685249   -2.075069   -0.063946
H     -2.515011   -2.948902   -1.858255
