37

C     -3.759777    0.468345    1.361946
C      5.040539    0.074526    0.823425
C      4.617774    1.367833    0.600704
C      4.354970   -0.947816    0.203583
C      0.347581    0.874415   -1.046536
C      0.129927   -0.422326   -0.355457
C      3.539799    1.626191   -0.219202
C      3.280283   -0.667942   -0.611980
C      1.699210    0.831458   -1.733360
C     -1.149335   -0.566184    0.414175
C     -3.649207   -0.569672    0.260021
C      2.837137    0.621935   -0.850876
C     -2.322819   -0.403057   -0.470211
C     -3.871510   -1.929924    0.737060
O     -2.353591    0.955088   -0.891430
O     -4.809117   -2.618972    0.262389
O     -3.099627   -2.555964    1.715614
H     -2.954332    1.190981    1.238391
H     -3.737207   -0.058498    2.335491
H     -4.724308    1.012167    1.322066
H      5.888984   -0.111503    1.470197
H      5.128305    2.210014    1.068985
H      4.695102   -1.974097    0.383953
H      0.180776    1.768000   -0.450251
H     -0.378929    0.932980   -1.919792
H      1.023680   -0.657143    0.302525
H      0.205880   -1.231785   -1.146383
H      3.218138    2.645085   -0.385787
H      2.784747   -1.532419   -1.070768
H      1.635647    0.006800   -2.490528
H      1.840130    1.767293   -2.323051
H     -1.093315   -1.549777    0.926826
H     -1.115629    0.179267    1.243614
H     -4.434277   -0.316562   -0.479767
H     -2.278864   -1.009010   -1.364799
H     -3.196625    1.186965   -1.313705
H     -3.520143   -3.116906    2.452917
