37

C     -3.492102   -0.419546    2.221914
C      4.553789   -0.169633    1.079124
C      4.664770   -0.606822   -0.230437
C      3.468075    0.581570    1.424369
C      0.578587   -0.298246   -1.921566
C     -0.173253   -0.445549   -0.636115
C      3.707827   -0.297615   -1.173544
C      2.503761    0.891674    0.468424
C      1.598809    0.789431   -1.858003
C     -0.949800    0.807277   -0.347251
C     -2.717136   -0.379833    0.912968
C      2.602262    0.468949   -0.815876
C     -1.728632    0.745990    0.951782
C     -3.674434   -0.179153   -0.199814
O     -2.295238    1.962281    1.248355
O     -3.731871   -1.061824   -1.093428
O     -4.496177    0.944447   -0.275874
H     -3.560573    0.574871    2.694222
H     -3.030654   -1.134884    2.907445
H     -4.518778   -0.803307    1.984567
H      5.304158   -0.407897    1.833757
H      5.523549   -1.209251   -0.532925
H      3.340556    0.947355    2.446305
H      1.027161   -1.288507   -2.190655
H     -0.129455   -0.085208   -2.773283
H     -0.847271   -1.333020   -0.647633
H      0.561814   -0.582761    0.207064
H      3.847620   -0.665805   -2.177818
H      1.666076    1.490526    0.787316
H      1.165005    1.779487   -1.684720
H      2.110781    0.887545   -2.865574
H     -1.691231    0.910113   -1.193159
H     -0.326696    1.698680   -0.394319
H     -2.204414   -1.350275    0.820764
H     -0.987484    0.504335    1.743271
H     -2.727320    2.367019    0.471272
H     -4.942081    1.092314   -1.190923
