76

C      6.135513    3.312191   -0.930170
C     -4.981072    0.361667    3.391323
C      2.372875    1.667375    2.708171
C      3.570920    0.201731   -2.185141
C      5.346600    3.196048    0.105487
C     -4.494224    1.013310    2.130903
C     -1.858749   -2.949437   -0.445107
C      3.040310   -4.946304   -1.418917
C     -5.754780    4.051659   -1.054294
C     -0.495269   -2.781752   -0.593450
C      2.537276   -3.692639   -1.661143
C     -2.690213   -1.857017   -0.535984
C     -6.765141    3.700901   -1.911672
C     -4.918154    3.088172   -0.504016
C      3.101024   -5.347512   -0.101457
C      3.897765    2.817083    0.003761
C     -4.755132    0.097675    0.909265
C     -0.770871   -0.485865   -0.916319
C      2.160426   -3.238797    0.649442
C     -6.154625    1.379480   -1.716698
C      4.390097    0.483177    0.165678
C      2.072221   -0.165117    1.028515
C      2.418653    1.339666    1.230269
C      3.538416   -0.319850   -0.770229
C      0.069934   -1.555887   -0.830475
C      2.096140   -2.828908   -0.659391
C     -2.169549   -0.612478   -0.769624
C     -6.955987    2.369998   -2.234740
C     -5.151020    1.777076   -0.858612
C      2.671389   -4.514795    0.914582
C      1.541607   -1.488764   -0.967755
C     -2.989740    0.575969   -0.800591
F     -7.955328    2.027639   -3.082455
N      3.739817    1.606354    0.750318
N     -4.274794    0.753905   -0.284065
N      2.158803   -0.397334   -0.352265
O      2.734223   -4.923789    2.251299
O     -2.442134    1.599169   -1.391630
H      5.829642    3.149027   -1.961168
H      7.170173    3.585642   -0.799314
H     -4.187040   -0.158801    3.964319
H     -5.850266   -0.300762    3.205397
H     -5.372102    1.155709    4.090482
H      2.760831    0.819420    3.307213
H      3.078645    2.521624    2.881266
H      1.387854    2.017102    3.049346
H      2.735295    0.900781   -2.375930
H      4.542418    0.710035   -2.356565
H      3.510240   -0.667646   -2.888113
H      5.726911    3.372515    1.104324
H     -3.405211    1.201366    2.172748
H     -5.014383    1.981557    2.014990
H     -2.282714   -3.925331   -0.259260
H      3.382280   -5.618913   -2.195121
H     -5.614800    5.084785   -0.809921
H      0.085046   -3.713345   -0.511025
H      2.468265   -3.328162   -2.678319
H     -3.752877   -2.078486   -0.461707
H     -7.426083    4.445733   -2.348043
H     -4.127548    3.374647    0.169455
H      3.494955   -6.330320    0.111371
H      3.286361    3.641827    0.392263
H      3.697294    2.673391   -1.084971
H     -4.133176   -0.788207    1.112357
H     -5.806152   -0.224461    0.864102
H     -0.347145    0.497382   -1.103962
H      1.837753   -2.669909    1.506932
H     -6.276614    0.324611   -1.949315
H      4.826487   -0.141332    0.992153
H      5.279311    0.812563   -0.415590
H      2.949537   -0.656657    1.558791
H      1.138804   -0.376804    1.539842
H      1.650331    1.962747    0.733732
H      3.934766   -1.371461   -0.751312
H      1.703563   -1.353796   -2.090852
H      3.102121   -5.842073    2.458009
