58

C      2.579540    1.083106    1.379941
C     -3.730310   -1.447094    1.216029
C     -3.484515   -1.452521   -1.088233
C     -0.420275    4.911398   -1.015655
C      0.868466    4.719974   -0.576123
C      2.321695   -3.125925    1.250011
C      2.918882   -3.741437    0.157461
C     -1.213646    3.817111   -1.205367
C      1.357425    3.456916   -0.330362
C      2.072760   -1.784194    1.215139
C     -0.547932   -1.199926   -0.768835
C      3.239823   -2.972316   -0.926634
C     -1.556806   -1.620317    0.269631
C     -1.363902    1.216866   -1.060789
C      2.168401    0.415616    0.070104
C     -0.703097    2.532466   -0.950589
C     -0.262963    0.259540   -0.692113
C      0.563991    2.334186   -0.518587
C      2.408687   -1.011630    0.095488
C      0.830587    0.871282   -0.355988
N      2.983281   -1.666684   -0.927544
N     -2.837112   -0.977760    0.144399
C     -0.772299    0.752986   -0.217291
C      0.433610    1.153816   -0.474438
C     -1.194759   -0.523054    0.304729
C      1.585328    0.319860   -0.257468
O     -0.512536   -1.494185    0.618851
O     -2.592635   -0.735895    0.501258
O      2.745339    0.819519   -0.548870
O      1.667988   -0.961789    0.223169
H      2.729189    0.357082    2.203695
H      1.736672    1.720388    1.690063
H      3.527486    1.598335    1.242230
H     -4.155650   -2.427918    0.971691
H     -3.194453   -1.417417    2.180517
H     -4.528886   -0.654297    1.283717
H     -3.244239   -2.534351   -1.157749
H     -3.108991   -0.911802   -1.966511
H     -4.584359   -1.383967   -0.952487
H     -0.783889    5.934921   -1.204381
H      1.527515    5.558148   -0.413445
H      2.066465   -3.751582    2.118462
H      3.118896   -4.824897    0.187890
H     -2.227958    3.921462   -1.548444
H      2.389277    3.306909    0.020008
H      1.612356   -1.312660    2.050135
H      0.274563   -1.870878   -0.799965
H     -1.113778   -1.394678   -1.763256
H      3.700557   -3.424412   -1.779975
H     -1.180465   -1.451378    1.307476
H     -1.755333   -2.721017    0.222300
H     -1.678366    1.001255   -2.104764
H     -2.188845    1.220071   -0.336630
H      2.869257    0.844028   -0.713091
H     -1.563953    1.488342   -0.426536
H      0.609547    2.181037   -0.880253
H     -2.914391   -1.716920    0.429183
H      2.508762   -1.283717    0.727666
