53

C     -4.271329    3.850329    0.453915
C     -6.459872   -1.909461   -0.971952
C     -4.529485    2.798073    1.314636
C     -3.255673    3.718199   -0.484380
C     -5.790622   -2.496326    0.089570
C     -5.759628   -1.015870   -1.750881
C      5.330425    2.537964    0.653127
C      2.962893   -2.907092    0.284321
C      4.190143    1.859852    0.279903
C     -3.763566    1.652134    1.206395
C     -2.500463    2.571217   -0.581250
C     -4.472751   -2.201029    0.361211
C     -4.443501   -0.716815   -1.484557
C      3.181470   -1.742182    1.253240
C      6.523140    1.858369    0.558940
C      1.471959   -2.788477    0.080800
C      2.934845   -0.097974   -0.570952
C      5.421384   -0.091879   -0.254020
C      4.206025    0.547854   -0.176086
C     -2.754630    1.508203    0.281462
C     -3.775873   -1.300235   -0.428401
C      2.287076   -0.704302    0.619504
C      6.567778    0.569002    0.114184
C      1.104634   -1.534268    0.274220
C     -1.944021    0.293162    0.167668
C     -2.365853   -0.978211   -0.148240
C     -0.253044   -1.046741    0.162462
N     -0.634423    0.242745    0.358641
O      7.783796   -0.111966    0.022202
O     -1.335819   -1.751481   -0.142767
H     -4.820416    4.781418    0.469048
H     -7.492640   -2.149881   -1.173226
H     -5.316665    2.885694    2.050348
H     -3.040911    4.530021   -1.163486
H     -6.374845   -3.198813    0.685358
H     -6.259546   -0.544657   -2.584919
H      5.289128    3.561691    1.005342
H      3.230192   -3.854744    0.771009
H      3.497807   -2.704473   -0.646134
H      3.253992    2.425880    0.365080
H     -3.947834    0.800962    1.878422
H     -1.700502    2.452122   -1.311345
H     -3.991532   -2.682561    1.198979
H     -3.887728   -0.011766   -2.097585
H      2.683367   -2.010224    2.228227
H      4.217621   -1.456926    1.379403
H      7.419912    2.367214    0.843685
H      0.879984   -3.655620   -0.181509
H      3.095444   -0.818540   -1.398911
H      2.284339    0.728269   -0.966914
H      5.452125   -1.096584   -0.607517
H      2.036546    0.098367    1.340089
H      7.837153   -1.059639   -0.302312
