60

C      0.358961    5.400587   -1.438631
C     -0.821094    6.197293    0.631509
C      4.685700   -1.799655    1.839891
C      4.154929   -3.783548    0.552732
C     -4.335553   -4.638813   -0.302784
C     -5.147987   -2.486623    0.661782
C     -0.478012    3.801625    0.302760
C      3.611140   -1.536855   -0.383279
C      0.404745    2.690976   -0.142593
C      3.146913   -0.140790   -0.122800
C     -2.863241   -2.616421   -0.349600
C      0.107414    5.170060    0.025082
C      3.711792   -2.383863    0.861583
C     -4.278605   -3.121067   -0.390518
C     -0.193902    1.372385    0.148684
C     -2.849387   -1.140889   -0.437063
C      1.794541   -0.077318    0.488033
C     -1.595141   -0.374800   -0.419718
C     -1.496780    1.088964   -0.493897
C     -0.379733   -0.890808   -0.328447
C      0.621552    0.200422   -0.344495
O     -3.944348   -0.534141   -0.528555
O      1.669374   -0.256329    1.676191
O     -2.374488    1.813899   -1.004875
O     -0.086832   -2.262651   -0.231275
O      1.006724    0.368656   -1.676704
H      1.329009    4.939355   -1.691037
H     -0.458399    5.055286   -2.093247
H      0.479975    6.490861   -1.585747
H     -1.709865    6.268963   -0.020726
H     -1.164970    5.771007    1.608958
H     -0.312623    7.176980    0.774498
H      5.010389   -2.580380    2.559548
H      5.571404   -1.434339    1.276543
H      4.209365   -0.964624    2.370539
H      4.017871   -4.002282   -0.544548
H      5.231848   -3.913970    0.786464
H      3.538508   -4.505230    1.105211
H     -3.726452   -4.955338    0.566374
H     -5.359593   -4.982256   -0.137084
H     -3.923357   -5.106824   -1.211625
H     -5.883714   -1.777149    0.200205
H     -4.542938   -1.871534    1.353255
H     -5.763346   -3.251339    1.210361
H     -0.631146    3.757319    1.409902
H     -1.447040    3.742383   -0.186998
H      4.632214   -1.503441   -0.820874
H      2.986168   -2.059554   -1.147855
H      1.376344    2.738640    0.396759
H      0.653436    2.861074   -1.209909
H      3.118412    0.437629   -1.070250
H      3.887773    0.327006    0.572757
H     -2.418432   -2.988024    0.610339
H     -2.265287   -3.089059   -1.148782
H      1.081497    5.243049    0.553096
H      2.708800   -2.432491    1.349033
H     -4.713756   -2.865505   -1.387389
H     -0.259915    1.262681    1.256023
H     -0.029636   -2.725032    0.672987
H      0.348777    0.875839   -2.209498
