33

C     -3.604046   -2.194579    0.535463
C      5.101676    1.064037   -0.224274
C     -1.787978    2.646007    0.859544
C      0.843454    0.117833    0.908810
C      1.132029   -0.719191   -1.290464
C     -0.796165   -1.534207   -0.029770
C      0.401303   -0.692348   -0.098032
C      1.974866    0.879926    0.741777
C      2.263135    0.055851   -1.429864
C     -1.972553   -0.827976   -0.623890
C      2.715461    0.873759   -0.423476
C     -2.315118    0.432890    0.046329
Br     2.617068    2.030195    2.145828
Br     3.261645    0.012715   -3.073275
N     -3.120953   -1.708279   -0.715334
O     -3.481819    0.622715    0.499943
O      3.856604    1.641537   -0.594309
O     -1.413554    1.460555    0.216292
H     -4.218255   -1.469775    1.106101
H     -2.805157   -2.603630    1.208522
H     -4.275318   -3.057504    0.306502
H      5.927134    1.796694   -0.227995
H      5.329266    0.192257   -0.884340
H      5.024781    0.657548    0.805681
H     -2.343658    3.303757    0.137776
H     -0.859482    3.183244    1.173672
H     -2.421723    2.469361    1.755646
H      0.313425    0.159499    1.842826
H      0.791177   -1.360508   -2.100316
H     -0.962434   -1.833287    1.037708
H     -0.616460   -2.485221   -0.588925
H     -1.696421   -0.609808   -1.697257
H     -2.861928   -2.504067   -1.326897
