46

C     -3.442469    0.554388   -4.307525
C     -3.157773    0.772444    3.715281
C      6.684507    0.647977   -0.312693
C      5.672843    1.404281   -0.847008
C      6.344830   -0.327862    0.599334
C      4.358669    1.208295   -0.495225
C      5.007144   -0.524486    0.954865
C     -2.561798   -2.286651   -0.540817
C     -1.465661   -2.624843    0.096575
C      0.232518    0.745973    0.451468
C     -3.676443    0.095193   -2.916192
C     -2.795074    0.934613    2.284010
C      4.008190    0.235482    0.415580
C     -2.885029   -0.892058   -0.807583
C     -0.425698   -1.664971    0.622358
C     -2.093051    0.046047    0.107799
C      2.599368   -0.000478    0.815662
C     -0.608797   -0.358579   -0.059498
O     -4.827675    0.195579   -2.400420
O     -2.821061    2.097595    1.806251
O     -0.594998   -1.640689    1.994138
O      2.344764   -0.893996    1.643060
O     -0.472394   -0.545717   -1.442103
O      1.592573    0.728493    0.305017
O     -2.707430   -0.452874   -2.106804
O     -2.435047   -0.107925    1.457877
H     -2.607624    0.051540   -4.803728
H     -4.399281    0.354038   -4.864708
H     -3.323490    1.658783   -4.330841
H     -2.646816   -0.099779    4.183632
H     -4.249677    0.533385    3.768598
H     -2.968478    1.710777    4.273156
H      7.727101    0.795819   -0.584994
H      5.922630    2.169761   -1.560192
H      7.142189   -0.923299    1.019880
H      3.553049    1.807338   -0.917852
H      4.767476   -1.290872    1.667466
H     -3.221622   -3.070012   -0.864427
H     -1.225985   -3.693910    0.302522
H     -0.043711    0.963307    1.549627
H     -0.145962    1.715510   -0.033608
H     -3.963464   -0.724696   -0.521085
H      0.544786   -2.160980    0.332379
H     -2.142236    1.098599   -0.228967
H     -0.278852   -0.838564    2.448791
H     -0.315035    0.336182   -1.869053
