46

C     -3.193078    0.939908    3.315101
C     -4.693831   -2.141122   -0.946302
C      5.058221    0.261331    2.814841
C      5.292443   -0.919425    2.143768
C      3.977306    1.017936    2.461232
C      4.435836   -1.307404    1.137350
C      3.122604    0.613142    1.444048
C     -0.188004    1.870539   -0.201636
C      0.209426    2.142483   -1.415277
C      0.549660   -0.874089   -1.815246
C     -2.138797    0.567778    2.337097
C     -3.813359   -0.968093   -1.156266
C      3.330785   -0.560824    0.756063
C     -1.045806    0.708895    0.134671
C     -0.131807    1.344264   -2.616870
C     -1.648033    0.169350   -1.115054
C      2.474561   -1.027045   -0.308031
C     -0.618246   -0.026382   -2.172034
O     -1.231788   -0.263137    2.647809
O     -4.305232    0.125458   -1.597003
O      0.973229    1.232306   -3.464243
O      2.748516   -2.124216   -0.886385
O     -1.282164   -0.668986   -3.241523
O      1.354851   -0.373897   -0.768600
O     -2.076050    1.089557    1.051997
O     -2.450537   -0.973426   -0.900207
H     -4.027942    0.231758    3.170729
H     -3.488018    1.994272    3.260883
H     -2.774415    0.719522    4.333788
H     -5.570850   -2.014564   -1.621665
H     -4.207468   -3.100087   -1.220683
H     -5.121295   -2.164239    0.087438
H      5.718112    0.588661    3.611074
H      6.146572   -1.519827    2.421322
H      3.746820    1.963401    2.962419
H      4.663365   -2.244810    0.639602
H      2.264438    1.198850    1.151987
H      0.114637    2.514757    0.610814
H      0.842140    3.017475   -1.591143
H      1.223964   -0.897521   -2.721397
H      0.275525   -1.941072   -1.654340
H     -0.391283   -0.031004    0.675465
H     -0.994561    1.815400   -3.157954
H     -2.334182    0.982172   -1.502454
H      0.689864    0.618777   -4.196153
H     -1.486130   -1.586822   -2.899034
