38

C     -3.781793    0.177399   -0.580087
C     -2.885465    1.023976    0.299285
C      3.168116    1.687302    0.370643
C      4.148004    0.717537    0.350039
C      1.862433    1.372156   -0.000113
C      3.808994   -0.552719   -0.040761
C     -0.940704    0.180019   -0.918925
C      0.621814   -1.832261   -1.074899
C      0.395117   -0.495300   -0.793374
C     -1.555614    0.342147    0.474871
C      1.569903    0.099681   -0.381639
C      2.524224   -0.893806   -0.413835
N     -1.716964   -0.966246    1.101429
N      1.939103   -2.043545   -0.831061
C     -0.967836   -0.101958    0.104980
C      0.448687    0.223772   -0.153361
O      0.756670    1.439555   -0.243060
O      1.453497   -0.710808   -0.302474
H     -3.521164    0.321662   -1.636591
H     -4.830591    0.553180   -0.424515
H     -3.679043   -0.898319   -0.279145
H     -3.392065    1.169884    1.265332
H     -2.689870    1.974691   -0.242375
H      3.359690    2.707450    0.663217
H      5.138075    1.039457    0.651991
H      1.087866    2.117184    0.006256
H      4.603435   -1.296915   -0.046056
H     -0.804316    1.204802   -1.307011
H     -1.598230   -0.373436   -1.600069
H     -0.070777   -2.580633   -1.416958
H     -0.865256    0.934042    1.088761
H     -1.715484   -1.732632    0.368433
H     -2.613607   -1.004547    1.662142
H      2.434169   -2.952211   -0.942242
H     -1.199919   -1.166096    0.047181
H     -1.589031    0.432081   -0.641573
H     -1.268830    0.313859    1.099829
H      2.366762   -0.430405    0.088478
