39

C     -4.467471    0.360998   -0.989061
C     -3.456370   -0.500256   -0.250326
C      4.430599   -0.792840   -0.858405
C      3.391705   -1.680721   -1.012298
C     -2.426459    0.374604    0.430412
C     -0.839867    0.629509    2.087138
C     -0.320264    1.813682    1.399531
C      2.853970    0.902637   -0.352995
C     -0.309442   -1.929395   -0.479039
C      4.167854    0.513185   -0.524825
C      1.809877    0.028458   -0.504579
C     -0.263097   -0.735436    0.392851
C      2.072872   -1.285746   -0.837181
C      0.371313    0.416835   -0.331482
N     -1.419213   -0.364847    1.128036
O      5.153821    1.475741   -0.346107
O      0.320635    1.631129    0.224016
O      1.018847   -2.157268   -0.981531
Cl     0.685281    0.000000    0.000000
H     -3.988860    1.072475   -1.670724
H     -5.162306    0.885716   -0.336364
H     -5.071472   -0.369554   -1.603716
H     -4.073785   -0.978031    0.577626
H     -3.091439   -1.289540   -0.890009
H      5.451820   -1.082989   -0.988325
H      3.586555   -2.693537   -1.275209
H     -2.011844    1.009573   -0.391375
H     -2.983798    1.087626    1.070635
H     -0.054728    0.062110    2.622582
H     -1.629012    0.911994    2.820296
H     -1.134574    2.553077    1.275317
H      0.410713    2.311295    2.113643
H      2.644311    1.928614   -0.087170
H     -1.017089   -1.904598   -1.325771
H     -0.553395   -2.819211    0.132553
H      0.509182   -0.999430    1.204343
H     -0.020985    0.459208   -1.393645
H      6.101397    1.154932   -0.478739
H     -0.685281    0.000000    0.000000
