33

C     -2.534984   -2.171269   -0.657992
C      5.805132   -0.257131   -0.136928
C     -4.689812    1.968317    1.339997
C      1.330017    0.164452   -1.111511
C      1.448081    0.197547    1.241394
C     -0.676174    0.943963    0.162467
C      0.709505    0.433992    0.091535
C      2.617272   -0.315828   -1.199365
C      2.743447   -0.285667    1.156457
C     -1.692166   -0.168937    0.251540
C      3.350463   -0.550199   -0.052218
C     -3.035189    0.465730    0.313813
Br     3.468859   -0.682848   -2.875525
Br     3.720654   -0.592831    2.787425
N     -1.644277   -1.051049   -0.887056
O     -3.927267    0.198730   -0.552836
O      4.650002   -1.033775   -0.083709
O     -3.390497    1.367114    1.296726
H     -3.417089   -2.162288   -1.322837
H     -1.998394   -3.147353   -0.840550
H     -2.896689   -2.216508    0.383424
H      5.682042    0.765344    0.274698
H      6.179855   -0.221095   -1.184969
H      6.631138   -0.725395    0.458957
H     -5.321211    1.632381    0.497108
H     -4.514529    3.056227    1.199718
H     -5.149099    1.797315    2.328702
H      0.763868    0.346550   -2.007147
H      0.964121    0.406548    2.184661
H     -0.794593    1.580625    1.052026
H     -0.870425    1.542057   -0.750315
H     -1.478964   -0.749092    1.154042
H     -2.033096   -0.535629   -1.720107
