44

C     -4.092643   -3.821665   -0.520945
C     -2.751264   -4.069526   -0.723465
C     -4.570037   -2.551931   -0.281329
C     -1.909730   -2.985048   -0.674868
C      5.086181   -0.036280    0.729908
C      6.437744   -0.029700    1.064265
C     -3.945594   -0.021990    0.009299
C      5.566331    1.060734   -1.276214
C     -3.682063   -1.491795   -0.241797
C      4.594861    0.496891   -0.431217
C     -2.332970   -1.684389   -0.437797
C      7.342666    0.526725    0.216588
C      6.900934    1.071108   -0.953577
C     -2.582649    0.385679    0.600652
C     -1.684203   -0.376386   -0.341597
C      2.141165    0.014888   -0.122442
C      0.766114    0.092863   -0.626953
C     -3.292808    2.682880    1.178022
Cl     9.039875    0.514155    0.676963
F      7.784413    1.623698   -1.799302
N     -4.039413    2.276272    2.170132
N     -3.408265    4.043967    0.763021
N      3.240753    0.518977   -0.821555
N     -2.388884    1.802697    0.524694
N     -0.318158   -0.417842    0.089457
O      2.303854   -0.532412    0.984616
O      0.524584    0.640942   -1.756165
H     -4.770151   -4.666950   -0.556242
H     -2.363035   -5.075325   -0.914401
H     -5.643381   -2.364270   -0.120801
H     -0.853663   -3.129240   -0.827115
H      4.442762   -0.491871    1.448908
H      6.760440   -0.474547    2.010618
H     -4.035409    0.472816   -0.957691
H     -4.762020    0.132553    0.713520
H      5.235909    1.500301   -2.214352
H     -2.581381   -0.010777    1.628280
H     -1.764107    0.120606   -1.331170
H     -4.700654    2.900226    2.655991
H     -4.384416    4.370503    0.524366
H     -2.615813    4.698049    0.687937
H      3.001549    0.971551   -1.763819
H     -1.583499    2.186027   -0.010799
H     -0.113927   -0.873163    1.028377
