64

C      8.251855   -2.049379   -0.040753
C     -6.736203   -1.384774   -1.133719
C     -7.991093    0.552003   -0.414392
C      6.878717   -2.641005   -0.112167
C      5.888932   -1.704679   -0.779470
C      5.784458   -0.387931   -0.003980
C      4.786776    0.456015   -0.745958
C      4.613150    1.789276   -0.080401
C      4.126145    1.683697    1.306166
C      2.866933    0.978384    1.518660
C      1.577046    1.437849    0.967560
C      1.435467    1.484207   -0.498744
C      0.051515    1.950681   -0.954192
C     -5.250461   -1.008488    1.719374
C     -4.193547   -1.584140    0.878382
C     -6.194839   -0.109578    1.043566
C     -0.975272    1.008412   -0.442049
C     -3.117376   -0.674950    0.399667
C     -7.145475   -0.662798    0.062518
C     -2.381808    1.405302   -0.880374
C     -3.512599    0.506861   -0.409838
O     -3.268519    1.787760    0.102793
H      9.011900   -2.849812   -0.191500
H      8.444370   -1.289243   -0.845329
H      8.433823   -1.604670    0.961282
H     -6.694130   -2.502310   -1.020497
H     -7.612875   -1.287568   -1.879541
H     -5.891946   -1.023093   -1.723257
H     -8.077209    1.280262    0.418271
H     -7.379305    1.040584   -1.201660
H     -8.965872    0.215047   -0.792328
H      6.906074   -3.558464   -0.721561
H      6.488931   -2.841117    0.913681
H      6.202479   -1.467540   -1.814828
H      4.891787   -2.172765   -0.761657
H      5.404426   -0.587352    1.020616
H      6.748000    0.134819    0.063925
H      3.830428   -0.083451   -0.922105
H      5.171029    0.689785   -1.784731
H      4.223215    2.574420   -0.722668
H      5.726908    2.139517    0.039904
H      4.100142    2.730618    1.778144
H      4.933480    1.135759    1.889544
H      2.961767   -0.126716    1.181879
H      2.665874    0.810427    2.640477
H      1.276407    2.450653    1.419627
H      0.783340    0.767055    1.440174
H      1.525268    0.452339   -0.917822
H      2.138782    2.203614   -0.941473
H     -0.124594    3.003376   -0.677272
H      0.076418    1.924353   -2.069294
H     -4.711553   -0.359747    2.496553
H     -5.752331   -1.765671    2.384764
H     -3.663419   -2.395689    1.469385
H     -4.617133   -2.117274   -0.034242
H     -5.680366    0.801858    0.666601
H     -6.860073    0.339837    1.877300
H     -0.995926    0.972926    0.645472
H     -0.753807   -0.002093   -0.816073
H     -2.322919   -1.238443   -0.171455
H     -2.612037   -0.292593    1.357343
H     -7.938420   -1.268263    0.633427
H     -2.510340    1.952956   -1.832282
H     -4.274394    0.380945   -1.184278
