56

C     -5.199008   -2.167042    0.793966
C     -4.092727   -2.801868   -1.333170
C     -0.521348   -0.503929    1.396307
C      4.810491   -4.684728    0.248907
C      0.292079    6.168678   -0.426481
C      5.527994   -3.572978   -0.124076
C      3.436085   -4.603782    0.394592
C      0.189021    5.537244   -1.641363
C      0.418337    5.415764    0.736100
C      4.887140   -2.379374   -0.353554
C      2.818493   -3.393397    0.157977
C      0.212428    4.156473   -1.690675
C      0.437084    4.027220    0.636208
C     -1.798353    1.673581    0.893880
C      2.835392   -0.949277   -0.472977
C     -3.906064   -2.612780    0.153952
C      3.499674   -2.256754   -0.217010
C      0.335972    3.382009   -0.561061
C     -1.068285    1.368906   -0.368018
C      0.337884    1.884361   -0.610476
C     -2.629802   -0.581402    0.038132
C      2.230262    1.022585    0.781888
C     -1.422060    0.227585    0.454696
N     -2.801294   -1.755760    0.479706
N      1.334421    1.214961    0.030066
O     -3.568690   -0.037028   -0.840203
O      2.785112    1.918424    1.684942
O      2.829277   -0.265933    0.784937
H     -5.093796   -1.184258    1.321876
H     -6.015652   -2.094480    0.048679
H     -5.555990   -2.890576    1.574720
H     -3.962710   -3.864415   -1.644202
H     -5.127504   -2.528219   -1.630628
H     -3.411739   -2.157040   -1.931196
H     -0.131579    0.200041    2.189536
H     -1.170283   -1.204804    2.009922
H      0.241177   -1.134153    0.945744
H      5.315301   -5.627946    0.430441
H      0.275461    7.243380   -0.371178
H      6.593757   -3.659556   -0.230919
H      2.918685   -5.496675    0.687005
H      0.089626    6.124278   -2.557728
H      0.496221    5.943368    1.664957
H      5.427433   -1.491511   -0.647453
H      1.744719   -3.354543    0.278062
H      0.128311    3.693176   -2.671031
H      0.535640    3.473697    1.546795
H     -1.321537    2.000402    1.812257
H     -2.890871    1.926379    0.875242
H      1.815198   -1.079051   -0.826491
H      3.488708   -0.426043   -1.203801
H     -3.672717   -3.631714    0.581180
H     -1.733485    1.550922   -1.267247
H      0.484182    1.685046   -1.745336
H     -4.537429   -0.332262   -0.851794
H      2.861361    2.884794    1.495816
