56

C     -5.046109    1.914847    1.335025
C     -4.694468    3.998644    0.080041
C     -1.131038    1.043961   -1.645774
C      4.148798    2.556198   -0.892586
C     -1.287706   -5.121317   -0.804754
C      4.673376    2.202346    0.338966
C      3.752103    1.535881   -1.731746
C     -0.018585   -4.842176   -1.263993
C     -2.022791   -4.094056   -0.240007
C      4.796724    0.870234    0.718140
C      3.875817    0.211372   -1.352440
C      0.456253   -3.572826   -1.143196
C     -1.530116   -2.812867   -0.123635
C      0.460564    1.121324    0.412696
C      4.527477   -1.556074    0.257177
C     -4.000777    2.917579    0.880329
C      4.396618   -0.134798   -0.129783
C     -0.273544   -2.527130   -0.576047
C     -0.264280   -0.226918    0.399156
C      0.384787   -1.220947   -0.529923
C     -1.970308    1.652425    0.684899
C      2.175511   -1.746447    1.033539
C     -0.936604    0.980286   -0.146247
N     -2.975164    2.253849    0.137366
N      1.749121   -1.396194   -0.111208
O     -1.910954    1.668811    2.071517
O      1.315703   -2.027158    2.110244
O      3.538311   -1.851233    1.213159
H     -5.868354    1.810137    0.591206
H     -4.606164    0.920242    1.550736
H     -5.530089    2.251964    2.291014
H     -3.992527    4.387558   -0.694123
H     -5.063582    4.817374    0.720528
H     -5.573214    3.550201   -0.459218
H     -1.855259    1.858174   -1.915561
H     -0.145102    1.210632   -2.166288
H     -1.600296    0.094171   -1.948204
H      4.062935    3.608950   -1.165400
H     -1.702001   -6.138146   -0.887534
H      4.991082    2.974837    1.014083
H      3.339151    1.816787   -2.701046
H      0.554347   -5.643569   -1.704354
H     -3.016815   -4.323957    0.116821
H      5.217153    0.659259    1.699832
H      3.551656   -0.548209   -2.052042
H      1.474642   -3.393839   -1.523107
H     -2.106889   -2.002662    0.320484
H      1.221106    1.324063   -0.335203
H      0.606941    1.624506    1.390982
H      4.429005   -2.220163   -0.634748
H      5.511437   -1.716584    0.755771
H     -3.622317    3.406470    1.802917
H     -0.694224   -0.596580    1.346383
H      0.409052   -0.773358   -1.550528
H     -2.674287    1.829957    2.682367
H      0.493893   -2.585833    1.907890
