66

C      6.557048   -1.831713    1.502185
C     -4.741333   -4.852123   -1.533859
C     -4.266890   -1.822361    2.591336
C     -1.421153    5.226983    2.019909
C      2.467577    2.780456   -3.830101
C      1.608214    3.531877   -3.060897
C      2.492410    1.415312   -3.577884
C      0.807943    2.943803   -2.081679
C      1.705793    0.826446   -2.613551
C      2.782116    0.836425    0.346424
C      2.549030   -1.483901    0.372453
C      4.109517    0.767982    0.717987
C      3.874587   -1.604171    0.744478
C     -3.292831   -2.863725    0.101325
C     -1.595271   -2.895366   -1.531962
C      0.859797    1.600021   -1.863206
C      1.962944   -0.241941    0.161891
C      4.665332   -0.476952    0.920379
C     -2.817130   -3.356514   -1.086313
C     -2.576304   -1.928922    0.841786
C     -0.879736   -1.951437   -0.778025
C     -0.495792    1.822104    0.250980
C      0.023018    0.986886   -0.841999
C     -1.331668   -1.447073    0.402532
C     -0.819179    0.827229    1.346569
C     -1.773218    2.551136   -0.094407
C     -0.378895   -0.500932    0.919591
C      0.556646   -0.243225   -0.225352
N     -1.982083    3.787063    0.177451
O     -2.115952    0.969796    1.795809
O     -2.822816    1.883979   -0.747660
O      0.393750   -1.103832    1.954019
O      6.002113   -0.536924    1.294276
O     -3.515189   -4.291156   -1.841425
O     -3.029924   -1.429561    2.027137
O     -1.009707    4.538605    0.831134
O      0.354694   -1.385848   -1.075222
H      6.051387   -2.354263    2.333823
H      6.336033   -2.453781    0.586737
H      7.662263   -1.780957    1.612908
H     -5.555095   -4.341008   -2.125906
H     -4.995333   -4.737112   -0.473470
H     -4.780926   -5.953515   -1.777405
H     -5.130668   -1.584777    1.946527
H     -4.426438   -1.214928    3.532573
H     -4.262011   -2.876623    2.935465
H     -2.176238    6.010111    1.773596
H     -1.872281    4.424527    2.670948
H     -0.548052    5.690595    2.494461
H      3.109885    3.207614   -4.611768
H      1.562174    4.604935   -3.234752
H      3.169244    0.790547   -4.174783
H      0.160107    3.627163   -1.523377
H      1.802515   -0.240412   -2.496872
H      2.372677    1.797187    0.192675
H      1.992910   -2.404447    0.251244
H      4.713650    1.668011    0.853604
H      4.333518   -2.578752    0.905349
H     -4.256348   -3.179069    0.519390
H     -1.221644   -3.285959   -2.467717
H      0.179141    2.626228    0.596764
H     -0.899339    0.634258   -1.420024
H     -0.176940    1.136443    2.225638
H     -2.183536    1.137294    2.745840
H     -3.743868    2.338434   -0.858966
H     -0.124245   -1.756168    2.451391
