53

C     -5.406094    0.719618   -1.148971
C     -2.827100    1.405688   -0.887499
C      2.524104    2.093934   -0.680250
C      1.546990   -1.725568    1.611200
C     -4.642794   -0.128102   -0.487130
C      2.726199   -1.583525   -1.049331
C     -0.756268    1.156971    1.514180
C      0.726107    1.202938    1.528509
C     -1.457328   -1.873952   -0.392036
C      3.237751   -0.201037   -0.965740
C      1.256478   -1.762983   -0.794105
C     -2.435458   -1.021519   -1.152893
C     -2.831013    0.025352    1.108481
C      3.396938    0.970477    1.240702
C     -1.351352    0.079388    1.126438
C     -0.693497   -1.171259    0.679949
C      1.138750    0.376004    0.301329
C     -3.153533    0.009599   -0.380313
C      2.538777    0.702471   -0.007458
C      0.786048   -1.062689    0.461346
O      4.642174    1.401175    0.724117
H     -6.464983    0.596931   -1.208540
H     -4.935641    1.563940   -1.644633
H     -1.749576    1.603996   -0.691477
H     -2.940770    1.362673   -1.992242
H     -3.439187    2.174732   -0.404218
H      2.522509    2.896147    0.058073
H      3.441632    2.188554   -1.299299
H      1.666475    2.141535   -1.394113
H      0.968268   -2.678424    1.810262
H      1.481362   -1.153125    2.543563
H      2.554547   -2.034957    1.364101
H     -5.112423   -0.967561    0.005454
H      3.367142   -2.312333   -0.470346
H      2.876434   -1.946055   -2.114974
H     -1.309344    2.033012    1.830986
H      1.188435    0.860456    2.448110
H      1.071662    2.246015    1.336362
H     -2.063570   -2.705156    0.036612
H     -0.837007   -2.374487   -1.161322
H      3.336506    0.246778   -2.000591
H      4.315552   -0.263550   -0.622936
H      0.759155   -1.251694   -1.665060
H      1.085839   -2.858545   -0.770693
H     -1.943992   -0.524541   -2.018331
H     -3.215433   -1.678660   -1.627274
H     -3.234353   -0.895130    1.591046
H     -3.305196    0.908766    1.549912
H      3.005805    1.815871    1.812648
H      3.600309    0.072625    1.813227
H     -0.815603   -1.813852    1.615811
H      0.491644    0.768062   -0.522281
H      4.667921    2.364994    0.595754
