36

C     -0.775213   -1.262402    1.561717
C     -2.587612    0.426964    1.464841
C      0.097495    1.658065    0.853677
C     -2.590630    0.202906   -1.278304
C     -1.510246    1.254629   -1.040325
C     -0.711443   -1.334612   -1.194565
C     -2.021145   -0.975808   -0.535068
C      0.318260   -0.326715   -0.678140
C     -1.509433   -0.274435    0.731654
C     -0.569855    0.687130   -0.010820
O      6.022640   -0.180909   -0.375933
O      4.083413   -0.803215    1.495078
O      5.132203    1.562157    1.361795
O      3.563939   -0.467510   -2.838905
O      2.784982   -1.560689   -0.604890
O      1.105785    0.183512   -1.671028
O      3.480783    0.986197   -0.538582
P      4.692313    0.410846    0.488782
P      2.719468   -0.250074   -1.375582
H      0.054291   -0.807493    2.144831
H     -0.409737   -2.151129    0.997175
H     -1.487204   -1.661633    2.327822
H     -3.432629   -0.308080    1.611018
H     -2.237715    0.673984    2.475394
H     -2.935725    1.344965    0.961613
H      1.036862    2.008585    0.370378
H      0.291179    1.271473    1.877579
H     -0.551170    2.563726    0.967299
H     -3.558076    0.543531   -0.882291
H     -2.640967   -0.070809   -2.362674
H     -0.931643    1.407320   -1.975066
H     -1.954516    2.219461   -0.731602
H     -0.808379   -1.100476   -2.292253
H     -0.396963   -2.362807   -1.031520
H     -2.689996   -1.787409   -0.344008
H      0.926687   -0.894827    0.070902
