64

C      8.660369   -0.175631    1.552019
C     -8.009478    2.020085    1.391278
C     -7.405797   -0.387847    1.136642
C      8.303335    1.253872    1.346028
C      7.358299    1.501255    0.210232
C      6.035848    0.797028    0.369277
C      5.201248    1.137444   -0.837071
C      3.833891    0.507328   -0.817115
C      3.899758   -0.976882   -0.777253
C      2.531544   -1.629282   -0.767427
C      1.726692   -1.285679   -1.973497
C      0.378773   -1.932864   -1.977312
C     -0.402874   -1.487708   -0.773561
C     -5.445745    0.338649   -0.780192
C     -4.044126    0.696762   -1.196627
C     -6.024984    1.379572    0.119611
C     -1.783359   -2.104795   -0.732294
C     -3.154307    0.812377    0.019016
C     -7.449395    0.957086    0.486250
C     -2.618023   -1.717627    0.423401
C     -3.075245   -0.440295    0.830526
O     -1.807923   -0.845148    1.336068
H      9.687544   -0.219882    1.983625
H      8.010125   -0.681150    2.320212
H      8.712409   -0.770256    0.609005
H     -8.395226    2.877346    0.785761
H     -7.234709    2.405266    2.093011
H     -8.859996    1.641907    1.979887
H     -8.341120   -0.497920    1.736217
H     -6.529900   -0.498512    1.791102
H     -7.357143   -1.162349    0.326272
H      9.233918    1.822689    1.143502
H      7.875909    1.656712    2.285016
H      7.150002    2.590393    0.172147
H      7.823710    1.229619   -0.758229
H      5.495233    1.151708    1.269177
H      6.140062   -0.299133    0.429564
H      5.106909    2.259738   -0.856679
H      5.713246    0.839927   -1.785459
H      3.311375    0.941158    0.081438
H      3.280708    0.911897   -1.686914
H      4.533928   -1.361558   -1.598390
H      4.406724   -1.277944    0.178192
H      2.039818   -1.316671    0.200374
H      2.696830   -2.722465   -0.676497
H      2.325429   -1.561073   -2.866746
H      1.545882   -0.173966   -1.939042
H      0.421279   -3.034306   -2.078479
H     -0.167317   -1.527026   -2.879180
H      0.120598   -1.889896    0.129511
H     -0.395911   -0.403144   -0.682746
H     -6.078590    0.181396   -1.687966
H     -5.462822   -0.634286   -0.230771
H     -3.674392   -0.030218   -1.944598
H     -4.018173    1.695084   -1.712393
H     -5.454445    1.449578    1.069976
H     -6.064069    2.366174   -0.339788
H     -1.593541   -3.218659   -0.729772
H     -2.234106   -1.917704   -1.735420
H     -2.122631    1.170800   -0.292725
H     -3.531657    1.675051    0.615991
H     -8.008431    0.942895   -0.481448
H     -3.002147   -2.612686    1.008620
H     -3.813816   -0.416233    1.695475
