39

C      4.595031   -0.970332    1.460628
C      3.816761    1.362822    0.758404
C     -3.667112   -0.519505    2.573303
C     -0.479933    0.437097   -2.685383
C      1.859956    0.229715   -0.922905
C      2.773528   -0.655274   -0.120913
C      0.450813   -0.099204   -0.471465
C     -3.024108   -1.512746    0.356215
C     -2.349883   -1.107232   -0.926087
C     -3.051432    1.298875   -0.657429
C      3.688477   -0.118389    0.665123
C     -3.075997   -0.512613    1.198202
C     -0.579542    0.717495   -1.195201
C     -2.450264    0.683005    0.602986
C     -1.945500    0.316225   -0.740521
H      5.109079   -0.402400    2.260578
H      4.010094   -1.768182    1.992290
H      5.330291   -1.483292    0.808565
H      4.108148    1.734003   -0.228509
H      2.867636    1.806034    1.116788
H      4.594808    1.645785    1.480226
H     -4.136173    0.452437    2.770782
H     -2.894055   -0.736643    3.340543
H     -4.445248   -1.290703    2.615301
H     -1.461866    0.231328   -3.109174
H     -0.057795    1.309296   -3.226501
H      0.168144   -0.437339   -2.893911
H      1.968779   -0.018915   -1.986071
H      2.058176    1.281163   -0.712311
H      2.702900   -1.731596   -0.169075
H      0.322003   -1.179086   -0.677104
H      0.360406    0.042466    0.625522
H     -3.401031   -2.517831    0.512131
H     -3.095756   -1.183939   -1.752053
H     -1.532840   -1.779875   -1.175419
H     -2.861960    2.388544   -0.745201
H     -4.069947    0.957343   -0.917872
H     -0.406239    1.811409   -1.056608
H     -1.798349    1.320052    1.232125
