42

C      3.697760    0.139812    0.769284
C      2.898207    0.085907   -1.590835
C     -2.662260    2.046329    0.460053
C     -2.813997   -1.339094   -0.118892
C      0.651326    1.653677   -0.377658
C     -2.625649   -0.017372   -0.827178
C     -1.523872   -2.018950    0.219219
C     -0.705245    1.467546   -0.950954
C      1.902517   -1.455270    0.072152
C     -1.242803    0.205877    1.161177
C      1.249554    0.509834    0.312076
C      0.563422   -0.768446   -0.138399
C      2.531220   -0.070763   -0.162672
C     -1.738303    0.928990   -0.044940
C     -0.507802   -1.077419    0.839357
O      0.049387   -1.582922    1.991574
H      4.010819   -0.825667    1.212776
H      3.393190    0.840261    1.573487
H      4.559881    0.589315    0.250016
H      2.190871   -0.441290   -2.296146
H      3.049862    1.148490   -1.906185
H      3.878071   -0.410221   -1.754949
H     -2.055459    2.829740    0.927597
H     -3.359755    2.384352   -0.308973
H     -3.286499    1.608417    1.292493
H     -3.339489   -2.005413   -0.864481
H     -3.510575   -1.273831    0.739960
H      0.613639    2.540953    0.320620
H      1.327173    1.983706   -1.202199
H     -3.635812    0.397290   -1.017100
H     -2.195916   -0.234491   -1.836348
H     -1.087410   -2.592369   -0.616000
H     -1.751887   -2.781326    1.019386
H     -0.622476    0.892300   -1.921122
H     -1.057937    2.487264   -1.295189
H      2.028427   -1.734035    1.119468
H      2.170672   -2.195679   -0.691892
H     -0.699502    0.879720    1.819301
H     -2.160342   -0.116502    1.738811
H      1.283700    0.625252    1.426361
H      0.318076   -0.764017   -1.196499
H      0.215216   -2.539955    1.853441
