35

C     -2.905322   -1.741075   -0.322566
C      1.008075   -0.871090   -1.920012
C     -0.740468    2.753121    0.931176
C      3.863356    1.515811   -0.500991
C      0.907657   -2.450722    0.750736
C      1.839054    0.627259   -0.215165
C     -3.987166    0.398145    0.292262
C     -2.816925   -0.278098    0.091473
C      0.568730    0.129518   -0.874838
C     -1.688342    1.684445    0.637309
C     -0.137149   -1.450942    0.864303
C     -1.662547    0.410871    0.277070
Cl     0.531773   -3.795335    1.918160
N     -0.362534   -0.300664    0.065284
O     -0.979007   -1.668365    1.838763
O      2.740757    1.054835   -1.218943
S     -3.535376    2.024943    0.748741
H     -3.687510   -1.834220   -1.117182
H     -3.328563   -2.260791    0.560559
H     -1.955593   -2.129361   -0.686574
H      0.240503   -1.577666   -2.228970
H      1.982736   -1.355250   -1.632153
H      1.296701   -0.294124   -2.850446
H     -1.270508    3.711637    1.106017
H     -0.121604    2.598415    1.840209
H     -0.113613    3.002189    0.020873
H      3.514039    2.364682    0.158093
H      4.680145    1.814003   -1.153773
H      4.112314    0.703765    0.221835
H      0.928726   -2.970655   -0.240687
H      1.931017   -2.184328    1.014146
H      1.660085    1.483983    0.455618
H      2.299498   -0.179988    0.346119
H     -5.019193    0.031873    0.196452
H      0.206255    1.033177   -1.469488
