42

C      2.273853    0.025681    2.870000
C      2.712115   -1.545436    0.957038
C     -3.443717    0.017802   -0.384852
C     -0.500510   -0.056724   -2.697142
C     -0.144702   -1.483405    0.627672
C     -1.829263   -0.368913   -2.114937
C      0.033862    1.288800   -2.278691
C     -1.514816   -1.342902    0.157076
C      2.242836    0.886505    0.527570
C     -1.337024    1.152931   -0.276854
C      0.548167   -0.208539    1.022827
C      1.057747    0.406413   -0.264886
C      1.983750   -0.333516    1.431866
C     -1.924691   -0.164879   -0.619726
C      0.067187    1.382149   -0.747824
O      0.443500    2.674176   -0.443754
H      1.362163   -0.129905    3.497180
H      2.547497    1.099550    2.982182
H      3.119626   -0.579877    3.277559
H      3.003361   -1.506122   -0.117737
H      3.662722   -1.628598    1.537486
H      2.160854   -2.500661    1.178851
H     -3.593217   -0.129256    0.719640
H     -3.982255   -0.760634   -0.946637
H     -3.734863    1.047468   -0.659152
H      0.202324   -0.885335   -2.550656
H     -0.647310    0.012471   -3.815962
H      0.507985   -1.969918   -0.153017
H     -0.085228   -2.164025    1.506753
H     -2.088654   -1.420226   -2.322177
H     -2.610984    0.248306   -2.638956
H     -0.556572    2.081910   -2.732507
H      1.107826    1.317301   -2.592846
H     -1.750538   -2.246898   -0.488300
H     -2.209294   -1.489349    1.040631
H      3.206046    0.775478    0.000485
H      2.066982    1.828298    1.044621
H     -1.958069    1.918614   -0.841122
H     -1.500563    1.444689    0.791656
H      0.016973    0.445073    1.707359
H      1.383302   -0.385747   -0.968019
H     -0.298407    3.247253   -0.161272
