41

C      3.365997    1.992605    0.555914
C      0.157351   -1.218494   -2.848412
C     -3.680437    1.400591    2.829567
C      3.722160    0.523200    0.539974
C     -2.920971    1.189746   -1.282278
C     -1.985438    0.334296   -1.812455
C     -3.181842    1.269893    0.071334
C     -0.794193   -1.262701    1.377563
C      0.440839   -1.888982    0.856308
C      2.989363   -0.200646   -0.570536
C     -0.260922   -1.420760   -1.433618
C     -1.280223   -0.473968   -0.968070
C     -1.518273   -0.419630    0.410245
C      0.903372   -1.375926   -0.470298
C     -2.464102    0.449251    0.915679
N      1.555076   -0.103907   -0.421131
O     -2.738133    0.541825    2.273793
H      4.125300    2.526106    1.175112
H      3.423500    2.431282   -0.461289
H      2.396806    2.116537    1.041288
H      0.197841   -0.156549   -3.159672
H      1.199075   -1.625945   -2.953272
H     -0.498173   -1.788237   -3.512011
H     -4.679714    1.246884    2.336153
H     -3.375891    2.452629    2.795787
H     -3.845093    1.089760    3.895615
H      3.501375    0.112416    1.529625
H      4.807302    0.435216    0.334055
H     -3.474902    1.826380   -1.958951
H     -1.786244    0.275831   -2.866871
H     -3.935357    1.971637    0.401456
H     -0.617489   -0.649877    2.294122
H     -1.500795   -2.077342    1.697490
H      0.321597   -3.005367    0.746615
H      1.258796   -1.751957    1.594300
H      3.261440   -1.271997   -0.508228
H      3.368174    0.187246   -1.519024
H     -0.697647   -2.455090   -1.333731
H      1.655261   -2.118093   -0.863216
H      1.212866    0.508437   -1.212303
H      1.372349    0.383701    0.483370
