39

C     -3.298336   -1.310163   -0.040019
C     -2.366177    0.141567   -1.778794
C     -0.330825   -1.818223   -0.437111
C     -2.212782    0.421626    1.885160
C     -1.160208   -0.666109    1.638261
C     -1.221043    1.757481    0.114204
C     -2.468388    0.991357    0.531484
C     -0.161701    0.672919   -0.138861
C     -2.297672   -0.254294   -0.352812
C     -0.900719   -0.591151    0.128511
O      5.509227   -1.440724   -1.253934
O      5.220510    1.252048   -0.767954
O      5.327215   -0.539521    1.188952
O      3.271644    2.097544    0.794829
O      2.119270    1.495866   -1.487290
O      0.884912    0.782782    0.749624
O      3.171370   -0.500361   -0.225953
P      4.845620   -0.295924   -0.220490
P      2.347541    0.963010   -0.077740
H     -3.891804   -1.563427   -0.963885
H     -2.843353   -2.265127    0.292483
H     -4.063975   -0.989321    0.707779
H     -2.995206   -0.588070   -2.329655
H     -1.416305    0.302259   -2.285263
H     -2.936407    1.113249   -1.839027
H      0.759290   -1.821638   -0.300979
H     -0.716173   -2.693857    0.150706
H     -0.607056   -1.906000   -1.502108
H     -3.130354   -0.020261    2.282530
H     -1.750461    1.168729    2.558316
H     -1.556661   -1.655160    1.921812
H     -0.247790   -0.491323    2.206652
H     -0.912436    2.358516    0.992032
H     -1.401089    2.357638   -0.779261
H     -3.390570    1.508570    0.377788
H      0.229151    0.731582   -1.159565
H      5.699664   -2.253075   -0.739006
H      5.481519    1.797688    0.025508
H      3.410555    1.749299    1.704752
