47

C      3.534870   -0.277018    0.588412
C      3.604958   -0.801465   -1.765913
C      1.197788    2.405447    0.406004
C      0.104319    1.507769   -1.420515
C     -0.678180   -0.882498    2.877434
C     -2.616522    0.752558   -0.252313
C     -2.656480   -1.581881   -0.591391
C     -3.839035    0.852704   -0.919467
C     -3.841209   -1.531876   -1.241655
C     -1.203837    0.244165    2.034056
C     -0.706674   -1.756528    1.655045
C      1.417190   -0.555787   -0.674296
C      2.811970    0.034567   -0.725946
C     -1.993080   -0.477647   -0.073517
C     -4.462755   -0.281936   -1.420332
C      0.563874   -0.006293    0.369016
C     -0.770481   -0.566348    0.715870
Cl    -5.998075   -0.199909   -2.230856
N      0.256399    1.426995    0.066855
Cl     0.687051    0.000000    0.000000
H      3.359885    0.493557    1.332614
H      3.201024   -1.278340    0.963429
H      4.622895   -0.335368    0.343524
H      3.348290   -1.844483   -1.576231
H      4.688062   -0.632330   -1.483107
H      3.433099   -0.443011   -2.775476
H      2.171755    2.183046    0.796780
H      1.325737    3.139990   -0.460219
H      0.715831    3.130842    1.192886
H     -0.468562    0.682596   -1.828297
H     -0.519944    2.447109   -1.527453
H      1.027103    1.734539   -1.929329
H      0.312792   -0.666685    3.285648
H     -1.367905   -1.198004    3.691725
H     -2.174276    1.665913    0.129676
H     -2.168617   -2.514276   -0.439413
H     -4.305272    1.816320   -1.061658
H     -4.330715   -2.416769   -1.612560
H     -2.278267    0.343491    2.128662
H     -0.664076    1.180424    2.109502
H      0.261286   -2.316876    1.606172
H     -1.568222   -2.436519    1.663539
H      1.018841   -0.484332   -1.710613
H      1.576246   -1.679867   -0.566105
H      2.903601    1.058203   -0.987152
H      1.154372    0.065811    1.316967
H     -0.687051    0.000000    0.000000
