64

C      7.332930    1.174608    3.254941
C      6.363725    0.532471    2.203380
C      7.227444    0.173221    1.065519
C      6.723629   -0.523251   -0.111297
C      5.668707    0.000270   -0.979333
C      4.346331    0.139412   -0.338382
C      3.294662    0.677819   -1.328255
C      1.996469    0.769664   -0.542334
C      0.866847    1.284465   -1.383108
C      0.547868    0.470798   -2.555027
C      0.183580   -0.932134   -2.525755
C     -1.042895   -1.357662   -1.790933
C     -0.937485   -1.168301   -0.327229
C     -2.046273   -1.589130    0.544720
C     -3.369025   -0.960096    0.521221
C     -4.138770   -0.995400   -0.738308
C     -7.542513    0.826331    1.287595
C     -7.702893   -0.455403    0.452810
C     -6.908984    1.924005    0.554366
C     -6.347507   -1.042922    0.288421
O     -8.875134    1.212303    1.571590
O     -8.432284   -1.370977    1.264389
O     -7.603758    2.938113    0.203004
O     -5.580591    1.980057    0.189575
O     -6.059564   -2.082086    0.945108
O     -5.463775   -0.443036   -0.565667
H      7.979017    0.351953    3.584394
H      7.937161    1.882321    2.641553
H      6.754606    1.655479    4.045851
H      5.829320   -0.258183    2.715361
H      5.662729    1.385829    2.042163
H      8.043413   -0.506007    1.508834
H      7.846240    1.090620    0.810340
H      6.451645   -1.594756    0.232078
H      7.658587   -0.779857   -0.743338
H      5.974015    0.917098   -1.556768
H      5.531266   -0.757835   -1.826324
H      4.237060    0.708743    0.561912
H      3.952829   -0.898117   -0.095579
H      3.226899   -0.056612   -2.158758
H      3.545710    1.677948   -1.683855
H      2.177845    1.503970    0.266686
H      1.825031   -0.198616   -0.085320
H      0.076264    1.694843   -0.765135
H      1.311967    2.270543   -1.846034
H      1.479578    0.551337   -3.244819
H     -0.197688    1.055302   -3.202486
H      0.057514   -1.344416   -3.598239
H      1.011657   -1.598731   -2.109326
H     -1.897645   -0.832555   -2.280818
H     -1.194357   -2.486708   -1.951665
H      0.016551   -1.719342   -0.007761
H     -0.706790   -0.113684   -0.049414
H     -2.139592   -2.734356    0.364568
H     -1.626168   -1.516821    1.623554
H     -3.187682    0.159836    0.765832
H     -3.997811   -1.267610    1.414454
H     -4.174936   -1.946094   -1.271481
H     -3.717198   -0.231400   -1.479529
H     -6.961652    0.604043    2.191301
H     -8.216429   -0.251557   -0.488147
H     -9.246779    1.664324    0.791349
H     -8.766840   -2.115893    0.704712
H     -5.056079    2.851820    0.204480
