55

C      4.004550    0.904770    2.059636
C      4.493693    0.628537   -0.344316
C     -4.311853   -1.560629    0.701838
C      0.134418    3.313086   -1.048195
C      1.696155   -2.610210   -0.290398
C     -2.647570    1.268209    0.457237
C     -1.799635    1.953165   -0.587028
C      2.414791   -1.314723   -0.561662
C      0.379072    1.111080    0.157278
C      1.605139    0.856949    0.485912
C     -3.023333   -1.547467   -1.345751
C     -0.612998   -2.252140   -1.273653
C      3.915816   -0.023510    0.866062
C     -3.744122   -0.854071   -0.243344
C      0.204661   -2.516355   -0.333537
C     -2.040482   -2.527507   -0.813903
C     -3.843822    0.616417   -0.207601
C     -0.639975   -2.748202    0.875313
C     -0.426352    2.362378    0.005337
C      2.413508   -0.396970    0.636141
O     -3.957084    1.066900   -1.532379
O     -0.253338   -3.044539    2.052727
O     -0.762163    3.036390    1.150141
O      2.139036   -1.155840    1.758376
O     -1.978270   -2.599635    0.568812
H      4.839592    0.614631    2.723567
H      4.179338    1.958923    1.769876
H      3.072690    0.796856    2.659418
H      5.083753   -0.047966   -0.986662
H      3.688134    1.140643   -0.925968
H      5.188579    1.441629   -0.005110
H     -4.845452   -1.060525    1.519978
H     -4.275757   -2.638649    0.698757
H     -0.696046    3.934186   -1.432114
H      0.600987    2.696735   -1.840592
H      0.905213    3.960245   -0.560667
H      2.095567   -2.942096    0.682676
H      2.109008   -3.385860   -0.991839
H     -2.973826    2.013958    1.219657
H     -2.100725    0.471068    0.967644
H     -1.520902    1.182167   -1.349310
H     -2.289413    2.809406   -1.041065
H      3.396192   -1.473712   -1.005198
H      1.798662   -0.784211   -1.346978
H     -0.419280    0.319991   -0.084652
H      2.387174    1.654328    0.784245
H     -2.583630   -0.827924   -2.074423
H     -3.838555   -2.080485   -1.922834
H     -0.650635   -1.887280   -2.322009
H      4.461902   -0.927803    1.119322
H     -2.334955   -3.563939   -1.163885
H     -4.763079    0.949561    0.329383
H     -4.733485    0.567460   -1.930234
H     -0.501413    3.968029    1.052182
H      1.360524   -0.825447    2.263791
