39

C      2.999330   -1.839244   -0.904077
C     -1.326012   -1.544062   -2.136364
C     -0.757014   -3.016515   -0.320374
C     -1.208438    1.668585    1.932360
C     -2.705752    2.604275    0.159275
C      1.411049   -1.155166    1.386973
C      1.724473   -1.474510   -1.003795
C      1.106542    1.956673    0.286469
C      1.863250    0.732769   -0.094336
C     -0.825039   -1.638332   -0.945199
C     -0.232758    2.058600   -0.383491
C     -0.365367   -0.465717   -0.167995
C     -0.961195    0.813301   -0.553326
C     -1.470943    1.761389    0.479562
C      1.103637   -0.563143    0.035920
H      3.617631   -1.497776   -0.084869
H      3.472550   -2.493422   -1.638590
H     -1.696739   -2.430504   -2.686459
H     -1.404602   -0.619023   -2.671995
H     -1.512196   -3.633408   -0.820864
H      0.251758   -3.413863   -0.328712
H     -1.141661   -2.837904    0.726583
H     -0.798126    2.585769    2.394139
H     -2.171095    1.469091    2.490016
H     -0.536389    0.829070    2.156255
H     -2.943769    2.549410   -0.924118
H     -3.544155    2.255097    0.786501
H     -2.459173    3.643440    0.491994
H      0.439002   -1.395118    1.895337
H      1.932132   -2.111346    1.269520
H      2.027557   -0.465560    2.011453
H      1.162431   -1.843627   -1.845297
H      1.728468    2.847009   -0.025950
H      1.035815    2.034452    1.389537
H      2.206894    0.893010   -1.161304
H      2.808526    0.721830    0.487879
H     -0.362976    2.899324   -1.109317
H     -0.819957   -0.683052    0.883037
H     -1.647688    0.798200   -1.456378
