64

C     -2.352662    0.240581    1.011723
C     -2.914652    0.103321   -0.379142
C      3.253190   -1.051129   -0.422671
C      1.894404   -0.813190   -0.544980
C     -0.972981   -0.422753    0.971041
C      4.043065   -0.286165    0.408537
C     -1.887095   -0.125651   -1.429319
C      2.120946    0.947792    0.990655
C      1.292104    0.208154    0.171506
C     -0.137745    0.522852    0.097171
N      3.431612    0.698006    1.091576
N     -0.652216    0.541935   -1.248580
C      0.559184   -1.315423    0.000924
C      1.146269    0.949203   -0.234299
C      1.538883   -0.370580   -0.208948
C     -0.775938   -0.953673    0.179897
C     -0.179223    1.308640   -0.056048
C     -1.173554    0.356896    0.156188
N      2.908148   -0.733545   -0.391177
N     -1.710708   -1.996568    0.389832
N     -0.556588    2.686570   -0.088525
O     -2.461935    0.815052    0.323545
O      3.286980   -2.069622   -0.365528
O      3.804672    0.088750   -0.576016
O     -3.027106   -1.946545    0.056408
O     -1.334569   -3.085310    0.929828
O     -1.800458    3.090331   -0.461430
O      0.275188    3.558828    0.233954
C     -1.486372    0.322512   -0.051681
C      0.681231    1.251262   -0.140181
C     -0.672976    1.424943   -0.175717
C     -0.927588   -0.921038    0.103593
C      1.268868   -0.020010    0.019163
C      0.465886   -1.130117    0.143249
N     -1.273407    2.730139   -0.338900
N     -1.763062   -2.073567    0.231566
N      2.669441   -0.144946    0.044831
O      0.914506   -2.426421    0.301497
O     -0.455635    3.808531   -0.461830
O     -2.521478    2.834646   -0.362286
O     -1.295121   -3.149378    0.917539
O     -2.900548   -2.108662   -0.269078
O      3.427404    0.723380   -0.716287
O      3.237364   -0.986715    0.739428
H     -2.212991    1.333886    1.194624
H     -2.996603   -0.196330    1.787119
H     -3.623102    0.940894   -0.613362
H     -3.576084   -0.812288   -0.356266
H      3.718149   -1.849441   -0.984080
H      1.290140   -1.407653   -1.188652
H     -0.527457   -0.486708    1.965078
H     -1.102783   -1.400661    0.500266
H      5.104680   -0.456784    0.516957
H     -1.720114   -1.227091   -1.605075
H     -2.327049    0.232102   -2.406695
H      1.723332    1.766773    1.585433
H     -0.312089    1.533776    0.522733
H     -0.555999    1.465772   -1.694467
H      0.869572   -2.363774    0.023495
H      1.910526    1.716569   -0.399769
H     -3.279344    0.264203    0.487670
H     -2.580807    0.450256   -0.078406
H      1.339559    2.080539   -0.232945
H      1.872736   -2.665355    0.326444
