62

C      6.556741    0.092535   -3.128216
C      3.024908   -1.987604    2.910353
C     -1.981979   -0.920820    4.673309
C     -6.175924    1.936061   -0.497000
C     -6.219170   -0.274653    2.685594
C      3.707984    0.341641   -1.402976
C      2.816801   -0.473055    0.612445
C     -1.807232   -0.187117    1.730812
C     -2.926601    0.710883   -0.116193
C      0.693444    2.060585   -2.879876
C     -0.944129   -0.874915   -2.589911
C      2.698198    0.261767   -0.525350
C     -1.805002    0.180974    0.385567
C      0.847224    0.824391   -2.051139
C     -0.587779    0.326945   -1.749522
C      4.940972   -0.319057   -1.192579
C      3.995860   -1.154450    0.881909
C     -2.905689   -0.035467    2.579631
C     -4.108337    0.913327    0.630569
C      5.032284   -1.065490   -0.009188
C      1.431291    1.046644   -0.744852
C     -0.512820   -0.004917   -0.333076
C     -4.009482    0.519058    1.973718
O      1.834813    2.638429   -3.258734
O     -0.020471   -1.912267   -2.274496
O      6.234320   -1.736868    0.265404
O      5.922342   -0.249859   -2.042450
O      4.112215   -1.917906    2.048592
O     -2.954448   -0.370939    3.878840
O     -5.167938    1.424588    0.103748
O     -5.185399    0.714510    2.724674
O      0.513774    0.751803    0.252638
H      7.454392    0.772215   -2.960404
H      6.881815   -0.762731   -3.776388
H      5.908630    0.715782   -3.832705
H      2.643920   -0.949951    3.150537
H      3.298414   -2.407034    3.890747
H      2.195659   -2.546126    2.505320
H     -1.466511   -0.183169    5.339357
H     -2.419483   -1.662018    5.437405
H     -1.183229   -1.482358    4.120005
H     -6.534541    2.918516   -0.009948
H     -5.982393    2.283292   -1.560165
H     -7.141706    1.360557   -0.532168
H     -5.858804   -1.218925    2.200883
H     -7.084682    0.116626    2.094255
H     -6.574952   -0.538742    3.691733
H      3.618205    0.901307   -2.286997
H      1.990530   -0.516219    1.276292
H     -0.920964   -0.630773    2.177284
H     -3.002973    1.025587   -1.170238
H      0.053040    2.776969   -2.265972
H      0.021109    1.852309   -3.781077
H     -1.004010   -0.705466   -3.665998
H     -1.912760   -1.316175   -2.180680
H      1.310293    0.038760   -2.666036
H     -1.254647    1.180077   -1.953705
H      1.767597    2.108396   -0.570313
H     -0.188396   -1.055358   -0.187917
H      1.998629    2.502485   -4.228300
H      0.070608   -2.574136   -2.958913
H      6.266440   -2.270557    1.161863
