108

C      9.260786    3.473097   -2.381226
C      5.338156   -1.549383   -3.046859
C      4.444415   -2.761952    4.005105
C     -5.660437   -2.834610   -2.993285
C     -4.002808    1.936418    2.190801
C    -10.972525    4.445782   -0.232168
C    -10.667175   -0.611185    0.358145
C     -9.538100    0.102809   -0.047019
C    -11.726970    0.082649    0.869487
C     10.857663    0.510268    1.261159
C     11.573029    1.685408    1.388286
C      9.705800    1.379265   -0.596998
C      3.759589   -2.063196   -0.840891
C      3.497175   -2.454768    1.452864
C     -3.758182   -1.783175   -1.065615
C     -3.286591   -0.210549    0.606782
C      7.964558   -0.200375    2.187500
C     -7.757383    1.179015   -2.555658
C     -0.044334   -1.034781    1.510809
C      0.139015   -2.256329   -1.770248
C      9.910721    0.334925    0.266251
C      2.906473   -2.317747    0.190455
C     -2.858600   -1.284301   -0.147125
C     -9.448201    1.467645    0.046283
C      0.714119   -1.112421    0.196632
C     -0.433810   -1.297704   -0.779281
C     11.357162    2.717288    0.519403
C    -11.672475    1.463111    0.978495
C     10.415487    2.564970   -0.482817
C      5.138076   -1.940174   -0.682348
C      4.854862   -2.340114    1.653996
C     -5.032474   -1.227356   -1.218853
C     -4.547451    0.352943    0.468038
C      7.801985   -0.797115    0.779826
C     -7.237472    1.491126   -1.152833
C      9.160215   -0.941091    0.151623
C     -8.248886    2.259135   -0.358786
C      1.435931   -2.426710    0.066685
C     -1.519355   -1.876534    0.051841
C    -10.551715    2.140199    0.573967
C      5.693728   -2.079668    0.584452
C     -5.459031   -0.153684   -0.463497
O      6.744732    0.150310    2.719939
O     -6.741930    0.817557   -3.431421
O     12.088718    3.879628    0.670089
O    -12.779154    2.156425    1.510819
O      9.045663   -1.338003   -1.168513
O     -7.613442    2.770784    0.794089
O     10.217141    3.614959   -1.345128
O      5.930737   -1.680309   -1.785520
O      5.326419   -2.495596    2.945080
O     -5.898633   -1.760692   -2.145199
O     -4.923907    1.429398    1.251523
O    -10.542137    3.507921    0.702720
O      1.101427   -2.988106   -1.133321
O     -1.130460   -1.884685    1.387060
O      7.047781   -1.964120    0.768054
O     -6.667710    0.404964   -0.580611
H      9.512019    2.502702   -2.879023
H      9.394058    4.246733   -3.177035
H      8.233864    3.477827   -1.973817
H      4.879560   -2.527034   -3.300392
H      6.124334   -1.357163   -3.827176
H      4.540989   -0.800556   -3.050238
H      4.927296   -2.759085    4.989884
H      3.699239   -1.927842    4.002587
H      3.888299   -3.715150    3.881495
H     -5.157061   -2.447292   -3.907579
H     -6.661911   -3.201574   -3.353590
H     -5.133463   -3.692117   -2.536137
H     -3.128221    2.423529    1.730557
H     -4.484574    2.668912    2.885125
H     -3.598692    1.132490    2.855393
H    -10.192930    5.237614   -0.327581
H    -11.146132    3.916561   -1.189462
H    -11.920407    4.933072    0.092324
H    -10.671217   -1.706017    0.253959
H     -8.727504   -0.492639   -0.439438
H    -12.608864   -0.449230    1.188053
H     11.032878   -0.314207    1.956854
H     12.308651    1.804441    2.172797
H      8.968785    1.247592   -1.370694
H      3.361265   -1.948891   -1.833632
H      2.847837   -2.659035    2.300016
H     -3.465684   -2.626629   -1.682017
H     -2.582778    0.196428    1.343041
H      8.504646   -0.961613    2.777545
H      8.559719    0.742762    2.072684
H     -8.203354    2.116103   -3.012516
H     -8.566979    0.449012   -2.577659
H     -0.270347   -0.025195    1.835277
H      0.647772   -1.486549    2.281441
H     -0.684337   -2.971293   -2.043183
H      0.485315   -1.726937   -2.677915
H      1.307776   -0.221750    0.042873
H     -0.720045   -0.333285   -1.254762
H      7.243116    0.025502    0.233291
H     -6.424071    2.291825   -1.396424
H      9.730578   -1.725331    0.702217
H     -8.621327    3.155601   -0.898296
H      1.117524   -3.137460    0.891551
H     -1.575533   -2.973360   -0.234327
H      6.448535    1.061831    2.478163
H     -7.067982    0.293462   -4.193223
H     11.923717    4.627233    0.023403
H    -13.571388    1.635361    1.790091
H      9.712210   -2.049934   -1.369136
H     -6.925398    3.399011    0.522578
