86

C     -9.655969    0.326870   -3.175115
C      7.506733   -0.949267    3.679189
C      9.668561   -0.504185   -3.221845
C     -1.315408    4.248328    0.502695
C     -1.319141   -2.888234   -1.042149
C     -7.532892   -2.068406    2.986921
C     -6.126201    0.317001   -0.647356
C     -7.256452    0.342544   -1.485201
C      6.985299   -0.209314    1.066986
C      7.628277   -0.032295   -1.202121
C      0.095536    1.888479   -0.312361
C      0.095700   -0.388239   -0.804801
C     -4.372010    1.625387    2.051530
C      3.816639   -0.173561   -2.137180
C      3.679721    1.364740    0.897461
C      6.692073    0.171625   -0.216997
C      0.796567    0.773519   -0.703045
C     -6.054504   -0.553130    0.408301
C      4.279918   -0.230495   -0.699816
C      3.102030    0.269190    0.057547
C     -8.320949   -0.498974   -1.275565
C      8.209847   -0.798526    1.395760
C      8.858675   -0.619376   -0.897772
C     -1.259438    1.851394   -0.030883
C     -1.255899   -0.487451   -0.537225
C     -3.912410    0.383631    1.331510
C     -4.930534   -0.704140    1.351136
C      9.145178   -0.999565    0.396160
C     -8.233442   -1.371929   -0.206290
C      5.353343    0.785480   -0.502216
C      2.257188    0.871507   -1.003507
C     -7.140644   -1.415294    0.625133
C     -1.949212    0.650050   -0.142471
O     -5.242302    2.425568    1.375439
O     -4.380872   -1.972210    1.073587
O     10.380211   -1.578284    0.649470
O     -9.305989   -2.224221    0.009198
O     -9.469536   -0.512485   -2.079951
O      8.501565   -1.181956    2.697407
O      9.813876   -0.836511   -1.870802
O     -1.949923    2.990275    0.361518
O     -1.942308   -1.675835   -0.649022
O     -7.089144   -2.308937    1.690877
O      4.960492    1.627511    0.502218
O      2.464933    0.053294   -2.090271
O     -3.288607    0.655555    0.147742
H    -10.742760    0.624864   -3.252658
H     -9.136105    1.305833   -2.986590
H     -9.308900   -0.176693   -4.090673
H      7.259435    0.145646    3.676239
H      7.838598   -1.242827    4.689676
H      6.586369   -1.473912    3.352402
H      9.099282   -1.317575   -3.720219
H     10.639911   -0.427731   -3.755988
H      9.174091    0.479961   -3.285721
H     -2.049977    4.909844    1.001067
H     -1.022528    4.625973   -0.491995
H     -0.376466    4.123155    1.088968
H     -0.556835   -3.196643   -0.307076
H     -2.087697   -3.659603   -1.246123
H     -0.855038   -2.666738   -2.044979
H     -7.637638   -0.981046    3.144469
H     -6.761812   -2.464492    3.681670
H     -8.526909   -2.520844    3.155917
H     -5.303981    0.980417   -0.846898
H     -7.273714    1.033951   -2.298973
H      6.245170   -0.046772    1.841283
H      7.405072    0.267176   -2.227512
H      0.565755    2.862129   -0.202595
H      0.620373   -1.279313   -1.109849
H     -3.481590    2.185965    2.380787
H     -4.886279    1.353847    3.018890
H      4.381538    0.567815   -2.751830
H      4.057895   -1.171433   -2.608218
H      3.094319    2.322050    0.739370
H      3.547829    1.169064    1.989113
H      4.593130   -1.258836   -0.408991
H      2.594417   -0.494181    0.670797
H     -3.060280    0.003251    2.028330
H     -5.361115   -0.795277    2.376981
H      5.453692    1.409109   -1.430736
H      2.550451    1.919507   -1.225373
H     -5.095553    3.386954    1.564784
H     -4.564971   -2.191522    0.124917
H     10.668544   -1.882664    1.568873
H     -9.274296   -2.867539    0.771469
