108

C     13.810046    0.251447   -1.353296
C      4.953048   -1.877021    2.702677
C      4.707328    1.299932   -3.721441
C     -5.739535    2.954268   -0.727103
C     -4.504114   -4.154845   -0.004331
C    -12.341170    0.662856   -1.942261
C    -10.917985    1.199127    2.939690
C    -10.027936    0.651510    2.032038
C    -12.035158    1.854396    2.484065
C     10.090951    0.766404    1.947436
C     11.129889    1.551861    2.399527
C     11.407008    0.110776    0.075630
C      3.538711   -0.579604    0.694417
C      3.450873    0.464659   -1.417778
C     -3.901991    0.729745   -0.285858
C     -3.536880   -1.566557   -0.054662
C      8.649431    0.726175   -1.505150
C     -8.787955   -1.971073    0.706335
C     -0.084852   -1.718696    0.464493
C     -0.110899    1.263675   -1.379647
C     10.226314    0.038077    0.776397
C      2.814150    0.059679   -0.288982
C     -3.005928   -0.293630   -0.076185
C    -10.218236    0.737003    0.653479
C      0.520328   -0.822286   -0.597458
C     -0.717794   -0.103886   -1.079643
C     12.333679    1.648389    1.719008
C    -12.247507    1.953050    1.126054
C     12.432148    0.912442    0.561652
C      4.902063   -0.816159    0.550703
C      4.826028    0.231278   -1.572004
C     -5.249833    0.557496   -0.468003
C     -4.912064   -1.772738   -0.238608
C      7.988452    0.058030   -0.290080
C     -8.150461   -0.646020    0.330350
C      9.093669   -0.819429    0.299625
C     -9.266028    0.177836   -0.292279
C      1.356701    0.261939   -0.027896
C     -1.566457   -0.080881    0.135692
C    -11.339514    1.394250    0.207612
C      5.558234   -0.405012   -0.599791
C     -5.789844   -0.733753   -0.445546
O      8.984954   -0.298295   -2.382367
O     -7.945695   -2.868149    1.293935
O     13.350465    2.448979    2.209639
O    -13.375404    2.614982    0.678694
O      8.674724   -1.542014    1.393320
O     -9.828548   -0.539629   -1.347213
O     13.614952    0.974298   -0.155169
O      5.615021   -1.462312    1.549566
O      5.471537    0.646576   -2.728422
O     -6.125561    1.602637   -0.676749
O     -5.401075   -3.083016   -0.212718
O    -11.597705    1.519019   -1.120413
O      0.888717    1.443150   -0.478425
O     -1.016410   -0.910580    1.099555
O      6.883815   -0.643643   -0.726487
O     -7.148426   -0.888827   -0.632612
H     12.979967    0.469733   -2.026510
H     13.921550   -0.845422   -1.154023
H     14.803942    0.563890   -1.757131
H      4.681195   -0.999720    3.314867
H      5.660811   -2.518438    3.282961
H      4.061588   -2.495807    2.412396
H      4.142975    2.158334   -3.284289
H      3.911338    0.612817   -4.121689
H      5.297423    1.637499   -4.574318
H     -5.760266    3.449428    0.265253
H     -4.749000    3.094857   -1.209198
H     -6.475683    3.502190   -1.354678
H     -3.684949   -4.148346   -0.776609
H     -4.065628   -4.070878    1.006459
H     -5.040461   -5.117024   -0.153913
H    -11.856974    0.387779   -2.893094
H    -13.361569    1.095086   -2.116607
H    -12.536648   -0.276692   -1.381876
H    -10.705666    1.094752    4.009217
H     -9.165642    0.149624    2.439441
H    -12.712510    2.272861    3.219177
H      9.153365    0.689418    2.476404
H     11.039747    2.132089    3.319623
H     11.482171   -0.465482   -0.829194
H      3.057037   -0.920985    1.622918
H      2.884220    0.968813   -2.193929
H     -3.506854    1.737034   -0.307473
H     -2.911060   -2.443912    0.105316
H      7.945548    1.417783   -1.957010
H      9.606847    1.207909   -1.197852
H     -9.750245   -1.832292    1.278119
H     -9.150440   -2.466748   -0.249790
H      0.731036   -2.058935    1.107825
H     -0.535862   -2.578493   -0.034773
H      0.213705    1.294040   -2.440903
H     -0.901957    2.023393   -1.210464
H      1.010994   -1.399356   -1.406847
H     -1.152617   -0.563244   -1.973790
H      7.750959    0.910204    0.383130
H     -7.656017   -0.171152    1.180662
H      9.495367   -1.511194   -0.448373
H     -8.764362    1.058410   -0.805350
H      1.171119    0.244599    1.089333
H     -1.482888    0.958777    0.577729
H      8.469038   -1.109864   -2.241208
H     -7.531531   -2.431076    2.102271
H     13.203268    2.961734    3.068336
H    -13.524563    2.685559   -0.315407
H      8.986589   -2.497899    1.331954
H     -9.060676   -1.023533   -1.784444
