24

C      3.069228   -0.362697   -0.686004
C     -2.991091   -0.367818   -0.038830
C      0.680963   -0.122953   -1.356778
C      0.266051    1.210603    1.034023
C      1.620086   -0.158673   -0.417843
C     -0.724661    0.279757   -1.079619
C     -0.908872    1.051978    0.147154
C      1.185002    0.018049    0.993850
C     -0.856910   -1.319269    0.908716
C     -1.478787   -0.310130    0.053689
O     -1.489370   -2.349529    1.229303
O      0.447984   -1.137949    1.372474
H      3.428162   -1.257559   -0.134781
H      3.268735   -0.464255   -1.768349
H      3.619919    0.549971   -0.314239
H     -3.392952   -0.103837    0.961602
H     -3.327857    0.432211   -0.737510
H     -3.337640   -1.363506   -0.390718
H      0.991512   -0.406792   -2.356797
H     -0.063148    1.442742    2.082589
H      0.854762    2.097744    0.709731
H     -1.308745    0.546858   -1.980825
H     -1.588036    1.922466    0.094827
H      2.035666    0.172587    1.674333
