78

C      7.744919    0.772095   -2.335029
C      0.039873    0.832071   -4.017613
C     -2.147970   -0.328623    2.864495
C     -7.590327   -1.783710    0.958321
C     -6.241166    2.995820    0.213705
C     -5.430918    1.975903   -0.309935
C     -7.519795    2.723304    0.627025
C      7.046673   -0.918148    2.370753
C      8.394746   -0.611452    2.250028
C      6.755392   -0.240897    0.128503
C      0.665777    0.078543   -1.269152
C     -0.171007   -0.267636    0.933777
C     -4.530076    0.703834   -2.964513
C      3.629240    1.042222    0.821357
C      3.103041   -2.118712    2.228979
C      6.217692   -0.729674    1.292125
C      0.879245   -0.269875    0.063622
C     -5.906971    0.695979   -0.414998
C      3.906096    0.031603    1.902034
C      2.584378   -0.742804    1.847598
C      8.922350   -0.120500    1.071507
C     -8.019304    1.444457    0.531250
C      8.078558    0.070693   -0.019284
C     -0.622335    0.416477   -1.664494
C     -1.453589    0.064610    0.562179
C     -3.939837    0.020749   -1.758051
C     -5.116279   -0.420472   -0.920750
C      4.797725   -1.035552    1.355456
C      2.264077   -0.632948    0.407970
C     -7.221792    0.436877    0.014591
C     -1.686789    0.415131   -0.772628
O     -3.632003    0.950101   -3.979487
O     10.264320    0.191204    0.930383
O     -9.311201    1.147210    0.943914
O     -4.736766   -1.289994    0.124811
O      8.562999    0.562722   -1.219547
O     -0.886997    0.770332   -2.978233
O     -2.433944    0.034449    1.529486
O     -7.702315   -0.850513   -0.091724
O      4.470148   -2.142903    2.085638
O      3.111755    0.274787   -0.194564
O     -2.960234    0.751584   -1.165388
H      7.443634   -0.144567   -2.864304
H      8.387147    1.335295   -3.078817
H      6.876617    1.415327   -2.052811
H     -0.514677    0.641588   -4.968897
H      0.821654    0.040631   -3.953929
H      0.597839    1.792131   -4.031876
H     -1.335806    0.239453    3.325267
H     -1.783322   -1.399257    2.801251
H     -3.056745   -0.390270    3.487390
H     -8.606752   -2.127581    1.301774
H     -7.064510   -2.720131    0.635393
H     -7.064589   -1.368676    1.846991
H     -5.836630    4.008505    0.288670
H     -4.430912    2.276762   -0.601280
H     -8.130520    3.541575    1.032869
H      6.704234   -1.294511    3.326488
H      9.090303   -0.739098    3.061883
H      6.120221   -0.075846   -0.758585
H      1.444371    0.100462   -2.014030
H      0.003097   -0.541682    1.967793
H     -5.040727    1.660420   -2.744248
H     -5.291237   -0.013172   -3.388534
H      4.604358    1.502249    0.490349
H      2.950524    1.855270    1.176324
H      2.790450   -2.377041    3.279580
H      2.636140   -2.873860    1.529403
H      4.147350    0.429323    2.876025
H      1.875739   -0.412766    2.580761
H     -3.434467   -0.932502   -2.160277
H     -5.743203   -1.077332   -1.589969
H      4.383660   -1.245669    0.309145
H      2.429585   -1.645309   -0.112296
H     -4.067472    0.862027   -4.880186
H     10.553704    0.592582    0.016775
H     -9.725936    0.247529    0.901588
H     -4.910516   -0.825551    0.980202
