86

C      9.817339    3.403436   -0.438236
C     -9.453202   -3.570250    0.298623
C     -8.653645    3.504428   -0.595316
C      0.939426    2.038054   -2.123223
C      1.214458   -3.428068    2.580473
C      7.669137   -3.024164   -1.917620
C      6.199204    1.026441   -0.575367
C      7.365239    1.812976   -0.518639
C     -7.061850   -1.038890    0.888519
C     -7.145490    1.250292    0.447522
C     -0.186049    0.702310    0.028357
C     -0.136171   -1.064944    1.562443
C      4.392463   -0.923592    1.045949
C     -3.147163   -0.990532    0.651853
C     -3.849744    2.196277    1.819786
C     -6.441269    0.178294    0.941461
C     -0.778193    0.088934    1.084780
C      6.203112   -0.166466   -1.242591
C     -3.990974    0.262841    0.496741
C     -2.988422    1.285573    0.973510
C      8.526034    1.427153   -1.114986
C     -8.360450   -1.227364    0.360371
C     -8.427540    1.108935   -0.081197
C      0.990901    0.219829   -0.552409
C      1.012703   -1.568955    1.022744
C      3.971800   -0.663343   -0.397409
C      5.009147   -1.026800   -1.370715
C     -9.043452   -0.107380   -0.132318
C      8.526895    0.208238   -1.796064
C     -5.066117    0.350789    1.505932
C     -2.027993    0.467433    1.767741
C      7.395546   -0.574450   -1.861840
C      1.602254   -0.908751   -0.069433
O      3.420398   -0.395695    1.887527
O      4.483069   -0.779126   -2.659765
O    -10.327871   -0.250774   -0.662527
O      9.702308   -0.210038   -2.416418
O      9.700156    2.174613   -1.083430
O     -8.909586   -2.401424    0.328754
O     -9.134310    2.198134   -0.577646
O      1.563263    0.874435   -1.627959
O      1.646207   -2.693997    1.469676
O      7.363604   -1.786108   -2.526767
O     -4.982022    1.525683    2.181200
O     -2.704378   -0.774450    1.974525
O      2.778992   -1.415338   -0.626600
H     10.829249    3.494833   -0.007199
H      9.099347    3.522207    0.424930
H      9.714623    4.259908   -1.162158
H     -8.918454   -4.381533   -0.292105
H     -9.561255   -4.011018    1.347363
H    -10.496157   -3.555323   -0.160368
H     -9.187035    4.055248   -1.408375
H     -8.850225    3.996015    0.389282
H     -7.595951    3.507733   -0.863418
H     -0.130515    1.906636   -2.368701
H      0.988712    2.848586   -1.353732
H      1.430764    2.375801   -3.076812
H      2.041297   -3.927318    3.146922
H      0.761787   -2.730139    3.344122
H      0.469520   -4.211771    2.346967
H      8.750034   -3.246062   -2.055734
H      7.086314   -3.843958   -2.392923
H      7.488538   -2.996524   -0.819234
H      5.317491    1.416848   -0.082510
H      7.297382    2.727906    0.017950
H     -6.587355   -1.918400    1.251897
H     -6.735716    2.224604    0.452907
H     -0.645498    1.601579   -0.373156
H     -0.591453   -1.582425    2.414010
H      5.352764   -0.481184    1.286295
H      4.378325   -2.032422    1.248249
H     -3.637545   -1.921098    0.476331
H     -2.254525   -0.856593    0.013088
H     -4.078310    3.093491    1.162583
H     -3.316857    2.615423    2.677896
H     -4.294888    0.423715   -0.553532
H     -2.533036    1.840806    0.122437
H      3.727053    0.420492   -0.415997
H      5.324473   -2.097759   -1.298742
H     -4.869212   -0.464349    2.267201
H     -1.895789    0.905332    2.765798
H      3.472236    0.589574    1.946083
H      5.129190   -0.326318   -3.242244
H    -10.849583    0.530234   -1.029291
H      9.692494   -1.086976   -2.901787
