78

C      9.667574    2.130290    0.793572
C     -2.461102    2.327840    2.284726
C     -0.398277   -2.605816   -2.634637
C     -8.492688   -0.150382   -1.820538
C     -6.151796    2.078329    2.237728
C     -5.671015    0.866520    1.725493
C     -7.062361    2.773156    1.520975
C      6.661315   -1.722223   -0.463396
C      7.900169   -2.009343   -1.008401
C      7.440852    0.309833    0.453451
C     -0.403393    0.825877    0.908650
C      0.234957   -0.770378   -0.696908
C     -4.626641   -2.514413   -1.375324
C      3.627977    1.667805    1.130639
C      3.365616   -1.491404   -0.166940
C      6.384223   -0.591609    0.267181
C      0.576216    0.136829    0.244919
C     -6.087898    0.368055    0.542460
C      4.231149    0.681885    0.116654
C      2.986078   -0.060634   -0.351742
C      8.941449   -1.109477   -0.816206
C     -7.509221    2.279700    0.294268
C      8.689732    0.043536   -0.082562
C     -1.751303    0.607914    0.632669
C     -1.086895   -0.992959   -0.972591
C     -4.538604   -1.051709   -0.804434
C     -5.723040   -0.963096    0.076839
C      5.045005   -0.348400    0.808196
C      1.976263    0.393028    0.648680
C     -7.026556    1.086130   -0.196316
C     -2.130925   -0.315954   -0.317814
O     -4.129807   -2.569492   -2.655351
O     10.190589   -1.369940   -1.348582
O     -8.441283    3.027688   -0.393922
O     -5.372832   -1.742009    1.241711
O      9.754375    0.921207    0.086705
O     -2.671037    1.356366    1.338799
O     -1.384914   -1.916996   -1.931372
O     -7.477901    0.654321   -1.396088
O      4.353922   -1.542736    0.824384
O      2.277677    1.734111    0.804096
O     -3.349854   -0.594163   -0.629643
H     10.650592    2.425358    1.243496
H      8.970014    2.076068    1.643305
H      9.382147    2.955610    0.080318
H     -1.548155    2.245403    2.891592
H     -2.368411    3.308426    1.726617
H     -3.307839    2.458123    3.003399
H     -0.820226   -3.192811   -3.491426
H      0.432052   -1.959926   -3.020959
H      0.104123   -3.358303   -1.957016
H     -8.916295    0.311631   -2.769471
H     -8.060840   -1.119538   -2.176912
H     -9.311812   -0.260859   -1.110735
H     -5.809872    2.472293    3.204017
H     -4.945396    0.364042    2.386607
H     -7.432984    3.718726    1.918342
H      5.892264   -2.457393   -0.636335
H      8.087451   -2.904796   -1.575869
H      7.259136    1.208318    1.014064
H     -0.129804    1.548155    1.656952
H      1.028697   -1.279262   -1.217915
H     -4.149913   -3.215037   -0.653150
H     -5.697891   -2.745678   -1.401045
H      3.646607    1.193901    2.155614
H      4.144357    2.646698    1.120873
H      2.532968   -2.118051    0.234099
H      3.697289   -1.906652   -1.145396
H      4.729869    1.249855   -0.682871
H      2.720173    0.214609   -1.393893
H     -4.942116   -0.521761   -1.797047
H     -6.578468   -1.475568   -0.356398
H      5.149157   -0.081123    1.921173
H      2.116554   -0.157379    1.607934
H     -3.999533   -1.637361   -3.026662
H     10.332402   -2.230611   -1.882721
H     -8.757437    3.901144   -0.007794
H     -4.454653   -1.513536    1.539284
