82

C      8.750242   -1.049976   -3.186427
C      7.697112    2.031756    3.298013
C     -1.506754   -4.106166   -1.944614
C     -1.598746    2.007546    1.756924
C     -8.485910   -0.123778    2.828828
C     -7.723749    2.231047   -1.608066
C     -6.736420    1.392169   -1.183664
C     -8.697184    2.632175   -0.720266
C      7.058123    0.017731   -1.199438
C      6.699934    1.036258    0.938589
C     -0.236875   -1.919671   -0.887715
C     -0.258425    0.082472    0.328644
C     -5.575599   -1.588070   -1.175432
C      3.856801   -1.746055   -0.055296
C      2.819515    1.571584   -0.197170
C      6.206683    0.544314   -0.224858
C      0.460843   -0.851036   -0.380008
C     -6.710607    0.942375    0.135570
C      4.000812   -0.356815    0.468682
C      2.593445    0.187665    0.369844
C     -8.722274    2.221988    0.588485
C      8.423508   -0.019304   -1.011533
C      8.081492    1.001025    1.133776
C     -1.623163   -2.057822   -0.694393
C     -1.618416   -0.048783    0.519975
C     -4.774264   -0.582107   -0.371211
C     -5.663787    0.080136    0.647390
C      8.918244    0.480376    0.169100
C      4.748907    0.557746   -0.472952
C      1.943052   -0.734202   -0.598242
C     -7.702168    1.359847    1.009865
C     -2.352633   -1.129390    0.012122
O     -4.841171   -2.127645   -2.216159
O     -9.702972    2.632380    1.466042
O     -6.186658   -0.887591    1.485647
O     10.275742    0.464389    0.400363
O      9.258974   -0.542966   -1.984298
O      8.560870    1.508651    2.328822
O     -2.250259   -3.170125   -1.236739
O     -2.318009    0.908332    1.237768
O     -7.766511    0.966233    2.339263
O      4.191100    1.797511   -0.136292
O      2.536480   -1.954749   -0.361094
O     -3.708501   -1.213054    0.227692
H      9.582756   -1.647924   -3.658023
H      7.890714   -1.734181   -2.992428
H      8.472194   -0.261935   -3.913257
H      8.282725    2.267869    4.213067
H      7.194849    2.930095    2.884645
H      6.902815    1.283542    3.589044
H     -1.019837   -3.728085   -2.862338
H     -2.121299   -4.986063   -2.238831
H     -0.672444   -4.437164   -1.259579
H     -1.044469    2.456087    0.909979
H     -2.262827    2.740782    2.260712
H     -0.835835    1.676554    2.490827
H     -8.832040   -0.779129    2.011247
H     -9.351293    0.299531    3.400625
H     -7.909411   -0.704963    3.552730
H     -7.713175    2.563359   -2.648604
H     -5.964371    1.071560   -1.832201
H     -9.478392    3.302766   -1.076353
H      6.653129   -0.369876   -2.120269
H      6.022765    1.437596    1.674213
H      0.326539   -2.667470   -1.451978
H      0.292751    0.937924    0.737639
H     -6.507580   -1.170000   -1.595420
H     -5.931980   -2.420920   -0.503510
H      4.235705   -2.478714    0.695487
H      4.515053   -1.889627   -0.950610
H      2.332075    2.301424    0.482055
H      2.504642    1.669388   -1.234974
H      4.394367   -0.309893    1.502847
H      2.095130    0.231575    1.360165
H     -4.362538    0.159555   -1.077555
H     -5.010720    0.720671    1.295359
H      4.526610    0.257249   -1.494477
H      2.141680   -0.353546   -1.633519
H     -4.539058   -1.364498   -2.795814
H    -10.425335    3.251516    1.138072
H     -5.609861   -1.684325    1.586318
H     10.905145    0.089206   -0.290824
