108

C    -13.591847    2.485762    0.503601
C     -4.815778    2.247346    1.657850
C     -5.110998   -3.331121   -2.902679
C      4.463427   -2.373200    2.582174
C      5.635022    2.042358   -2.943252
C     12.260016    0.947821    0.131451
C      9.146238   -0.357385    3.713575
C      8.802393   -0.633800    2.404608
C     10.457592   -0.069937    4.043703
C     -8.982145    0.613815    1.401886
C     -9.558547    0.919384    2.635376
C    -10.991870    1.392177    0.348257
C     -3.562030    0.320608    0.063534
C     -3.644156   -1.495913   -1.420023
C      3.514684   -0.828450    0.515303
C      3.869022    0.615958   -1.291383
C     -7.706949   -0.141907   -2.819285
C      8.095305   -1.007973   -1.964901
C     -0.213589    1.401801   -0.646233
C      0.285315   -1.999599   -0.133529
C     -9.691628    0.846789    0.253046
C     -2.884084   -0.601120   -0.698874
C      2.996070   -0.074528   -0.494560
C      9.736855   -0.630015    1.416006
C     -0.610178    0.142183    0.068705
C      0.670518   -0.597221    0.253961
C    -10.842859    1.457143    2.714386
C     11.407852   -0.063775    3.051412
C    -11.551978    1.689807    1.559371
C     -4.963772    0.357618    0.111392
C     -5.023972   -1.475017   -1.385274
C      4.901628   -0.897291    0.734696
C      5.247778    0.560150   -1.089457
C     -7.800035    0.409813   -1.347543
C      8.049523   -1.175814   -0.391464
C     -9.237882    0.583269   -1.116023
C      9.449739   -0.916708    0.015271
C     -1.424631   -0.707326   -0.827081
C      1.535100    0.040685   -0.786745
C     11.075612   -0.336402    1.750440
C     -5.718556   -0.535642   -0.610276
C      5.792164   -0.215008   -0.049852
O     -8.441968    0.789358   -3.565065
O      8.993699   -2.025034   -2.363258
O    -11.423391    1.764610    3.928840
O     12.727680    0.230219    3.414286
O     -9.666470    1.629665   -1.971121
O     10.315258   -1.913306   -0.491634
O    -12.823838    2.224141    1.657923
O     -5.584747    1.326891    0.912651
O     -5.792478   -2.377442   -2.107591
O      5.362070   -1.667789    1.760662
O      6.123716    1.260181   -1.897263
O     12.055427   -0.322531    0.770164
O     -0.983974   -1.987032   -0.644063
O      1.120326    1.325969   -0.902634
O     -7.110569   -0.546283   -0.600359
O      7.171436   -0.209055    0.077969
H    -13.099363    3.375155    0.022990
H    -14.640942    2.754066    0.754852
H    -13.554932    1.676856   -0.248257
H     -4.016893    2.723296    1.051156
H     -4.266737    1.738757    2.502296
H     -5.462928    3.068533    2.042702
H     -4.357843   -2.862285   -3.584135
H     -4.615487   -4.066044   -2.212341
H     -5.810201   -3.921824   -3.532489
H      3.650178   -1.694938    2.975645
H      4.957486   -2.765046    3.498819
H      3.998362   -3.168396    1.966296
H      5.374860    1.373457   -3.810965
H      4.792120    2.678914   -2.624046
H      6.490666    2.722148   -3.239854
H     13.140100    1.457532    0.562714
H     11.398272    1.632083    0.286739
H     12.474575    0.789422   -0.944941
H      8.386761   -0.369376    4.464723
H      7.790885   -0.845336    2.201975
H     10.733120    0.145051    5.061913
H     -8.000548    0.196528    1.330110
H     -8.979474    0.726805    3.508834
H    -11.554266    1.578422   -0.560251
H     -2.993534    1.018735    0.626487
H     -3.151806   -2.253521   -2.043834
H      2.844461   -1.383776    1.154417
H      3.472884    1.232038   -2.114834
H     -6.659212   -0.075271   -3.123916
H     -8.193316   -1.108451   -2.901338
H      7.131584   -1.221051   -2.400021
H      8.493701   -0.022619   -2.198407
H     -0.477992    2.305818   -0.028305
H     -0.754610    1.465852   -1.628937
H      0.425364   -2.724131    0.694415
H      0.987735   -2.312095   -0.949431
H     -1.101476    0.424475    1.018231
H      1.022434   -0.481310    1.287601
H     -7.174175    1.335785   -1.385938
H      7.674140   -2.219728   -0.301997
H     -9.781503   -0.314533   -1.521574
H      9.774327    0.006735   -0.575604
H     -1.149858   -0.429098   -1.885776
H      1.318258   -0.481314   -1.760185
H     -7.979547    1.640042   -3.631639
H      8.503273   -2.819764   -2.702412
H    -12.348210    2.151579    3.947313
H     13.474369    0.251351    2.734104
H    -10.435069    1.382391   -2.522020
H     10.743457   -2.423820    0.223132
