55

C      3.935753    0.512112    1.453995
C      4.368539    0.510221   -0.964753
C     -4.432517   -0.010050    0.988355
C     -0.028128   -3.727242    0.469552
C      0.477688    1.919395   -0.775797
C     -2.018242   -1.597718   -0.124885
C     -0.870823   -2.035037   -0.995765
C      1.787083    1.636639   -0.122437
C      0.556007   -1.482020    0.991860
C      1.284996   -0.414531    0.982048
C     -3.185536    1.678596   -0.199373
C     -1.138070    1.804359    1.153260
C      3.515554   -0.074250    0.130207
C     -3.592236    0.273505    0.010316
C     -0.619793    2.369835    0.109522
C     -2.602352    2.234472    1.065269
C     -3.086864   -0.827786   -0.842455
C     -1.387566    3.642334   -0.112315
C      0.371326   -2.338280   -0.152291
C      2.018340    0.095036   -0.135386
O     -2.708824   -0.404822   -2.118384
O     -1.217466    4.502316   -1.013303
O      1.462414   -2.720358   -0.887994
O      1.736571   -0.254865   -1.405057
O     -2.343329    3.644940    0.928156
H      4.866500    1.134070    1.334270
H      3.179348    1.100669    1.966791
H      4.252075   -0.281453    2.193966
H      4.978583   -0.278214   -1.498074
H      3.829171    1.087394   -1.721666
H      5.164144    1.171959   -0.513797
H     -4.779426   -1.021898    1.206040
H     -4.837761    0.763622    1.649384
H     -0.924086   -3.536653    1.064102
H     -0.276039   -4.351198   -0.410584
H      0.841193   -4.088787    1.042867
H      0.178839    0.966963   -1.325572
H      0.691439    2.617409   -1.609139
H     -1.683393   -0.988639    0.740998
H     -2.524064   -2.484614    0.360552
H     -1.230964   -2.992316   -1.488118
H     -0.673026   -1.374859   -1.854543
H      1.682096    1.989074    0.942543
H      2.611784    2.182191   -0.555374
H      0.053171   -1.716120    1.966991
H      1.368457    0.184629    1.924633
H     -2.512964    1.833517   -1.054622
H     -4.085385    2.327256   -0.424370
H     -0.897324    1.181262    2.008099
H      3.780423   -1.154357    0.179118
H     -3.177090    2.002525    1.945249
H     -3.970630   -1.508013   -0.992521
H     -1.935705    0.197771   -2.095674
H      1.211761   -3.457544   -1.470611
H      2.536349   -0.442447   -1.943284
