31

C      2.077344   -1.066413   -0.731779
C     -2.569425   -1.385122   -0.864155
C     -2.960939   -0.328804    1.303973
C      2.425806    0.446809    1.094263
C      3.895958    0.164702    1.004704
C     -0.347343    0.829865   -0.878236
C      1.540210   -0.124846    0.281229
C      0.133610    0.212618    0.445881
C     -1.823942    0.914209   -0.485182
C     -1.988352   -0.437899    0.162888
O      4.569187    1.378056    0.737431
O     -2.635569    1.095553   -1.584525
O     -0.724782   -0.856645    0.563047
H      2.666103   -1.882274   -0.255727
H      1.242238   -1.564935   -1.296398
H      2.707896   -0.494080   -1.441617
H     -3.226842   -2.155260   -0.412349
H     -1.723446   -1.937174   -1.361854
H     -3.153123   -0.790543   -1.595424
H     -2.535057    0.128929    2.210487
H     -3.847850    0.222962    0.934235
H     -3.290434   -1.359019    1.585423
H      2.127524    1.150373    1.868083
H      4.131858   -0.531381    0.178397
H      4.238597   -0.227209    1.968274
H     -0.176919    0.138693   -1.712487
H      0.100147    1.827938   -1.006772
H     -0.037110    0.939883    1.235940
H     -1.883243    1.748069    0.248987
H      4.065320    1.927774    0.079944
H     -2.997420    2.015170   -1.537432
