77

C     -3.768820    5.209659   -0.442174
C     -3.144824    3.874090    1.575477
C     -4.509586   -3.062903   -0.570074
C     -4.663272   -4.965214    1.028934
C     -0.919134    2.613313    1.001921
C     -1.361821   -2.959876   -0.949774
C     -0.414477    4.045161    0.985305
C     -2.025566   -4.147105   -1.591068
C      7.535355   -0.153853   -1.057585
C      6.620765   -0.290101   -2.086136
C      1.360571    0.528537    0.442654
C      0.413607   -0.464556   -0.140201
C     -1.348961    4.120228   -1.339307
C     -1.895128   -4.898308    0.728768
C     -1.677706    0.771025   -0.545198
C     -1.665334   -1.210908    0.803465
C     -1.587535    2.128499   -0.018340
C     -1.815332   -2.539982    0.218064
C     -1.324737    4.799415    0.037914
C     -2.754324   -4.929325   -0.542550
C      7.162033    0.318798    0.196113
C     -2.392528    3.185633   -0.759336
C     -2.567590   -3.553863    1.016181
C      5.289762    0.054907   -1.861710
C      2.779148    0.111845    0.237497
C      4.950571    0.517654   -0.617081
C      5.834276    0.664627    0.424613
C      8.156166    0.446530    1.247292
C     -2.746274    4.305525    0.199162
C     -3.749469   -4.071055    0.223718
N      3.582334    0.865143   -0.391653
N     -0.934820   -0.252224    0.019471
O      4.332150   -0.063294   -2.861944
O      3.202512   -1.095771    0.738685
O      5.443926    1.140670    1.674569
O      7.788791    0.876340    2.366643
O      9.461650    0.107093    1.024924
H     -3.381016    5.857506   -1.227114
H     -4.191094    5.842111    0.359362
H     -4.597225    4.553419   -0.794358
H     -4.135371    4.321146    1.836455
H     -3.284416    2.778199    1.664862
H     -2.442456    4.277393    2.338265
H     -4.809110   -2.228315    0.093135
H     -3.983129   -2.690001   -1.467605
H     -5.453221   -3.558451   -0.911217
H     -5.632782   -4.522993    1.253875
H     -4.171705   -5.247242    2.001031
H     -4.860267   -5.942821    0.501759
H     -0.738184    1.967405    1.865096
H     -0.544779   -2.529612   -1.505074
H     -0.455880    4.506475    1.968645
H      0.610829    3.986204    0.564378
H     -2.632009   -3.863311   -2.460191
H     -1.200632   -4.795177   -1.968202
H      8.563942   -0.426041   -1.244087
H      6.864162   -0.651404   -3.067072
H      1.258548    0.744175    1.502372
H      1.301054    1.523628   -0.106464
H      0.740213   -0.549685   -1.242032
H      0.730565   -1.497963    0.235977
H     -1.708395    4.793062   -2.128535
H     -0.403328    3.604387   -1.585637
H     -0.824176   -4.840720    0.548839
H     -2.262004   -5.710889    1.402513
H     -2.803113    0.519354   -0.588054
H     -1.453875    0.772109   -1.679336
H     -1.134955   -1.261981    1.798690
H     -2.667884   -0.787043    1.006116
H     -1.194625    5.878474    0.002923
H     -3.095066   -5.914477   -0.849047
H     -3.165593    2.813974   -1.417781
H     -2.749468   -3.322845    2.058544
H      4.517309   -0.392705   -3.780455
H      4.184867   -1.243133    1.010955
H      4.472721    1.385054    1.809388
H     10.085171   -0.173620    1.781836
