31

C      1.840635   -1.233923   -1.040678
C     -2.094007    1.609235    0.513576
C     -3.303792   -0.290844   -0.482467
C      2.320948    0.878825    0.049233
C      3.717930    0.857294   -0.457428
C     -0.321664   -1.062662    1.270489
C      1.434900   -0.074684   -0.206069
C      0.095332    0.055835    0.345215
C     -1.791197   -0.705110    1.424788
C     -2.046631    0.146227    0.193888
O      4.558540    0.866906    0.677761
O     -2.603049   -1.835621    1.394373
O     -0.917287   -0.052832   -0.631123
H      1.073471   -2.050541   -0.976103
H      2.776558   -1.658695   -0.588492
H      2.020567   -0.946973   -2.102985
H     -3.140416    2.007649    0.376191
H     -1.469603    2.210938   -0.189243
H     -1.831271    1.841532    1.563075
H     -3.210340   -1.309504   -0.916622
H     -3.595600    0.472472   -1.233655
H     -4.112022   -0.307000    0.273310
H      2.039458    1.734245    0.658708
H      3.965011   -0.054855   -1.013909
H      3.895905    1.791663   -1.001984
H      0.211545   -1.037045    2.237788
H     -0.273544   -2.056119    0.810657
H     -0.096983    1.006822    0.866974
H     -1.887635   -0.124960    2.354946
H      5.040123    1.704292    0.782658
H     -2.295880   -2.382567    0.611228
