77

C     -1.914555    3.874142   -1.443212
C     -3.232339    5.402377    0.094535
C     -2.723748   -3.716090    1.326869
C     -4.949314   -2.987097    0.457982
C      0.050476    2.666269    0.996642
C     -0.973355   -3.303483   -0.940160
C      0.331689    4.065224    0.440550
C     -1.894218   -4.474904   -1.217489
C      6.429648   -0.054092   -1.757322
C      5.257931    0.235772   -2.408298
C      1.102118   -1.437307    1.511885
C     -0.087208   -0.557049    1.612408
C     -1.552256    4.338259    1.950320
C     -3.494300   -2.679915   -1.852587
C     -1.646150    0.878919    0.481723
C     -0.622478   -0.895492   -0.750541
C     -1.184661    2.232166    0.821143
C     -1.465913   -2.089449   -0.760486
C     -0.887917    4.891937    0.673579
C     -3.302123   -3.997267   -1.132594
C      6.489988   -0.779620   -0.567335
C     -2.222129    3.345160    1.024302
C     -2.928153   -2.009593   -0.581379
C      4.078574   -0.216119   -1.853984
C      2.313225   -0.868400    0.915801
C      4.071748   -0.933748   -0.687337
C      5.296990   -1.216271   -0.039433
C      7.776116   -1.030079    0.038194
C     -2.120251    4.380545   -0.048321
C     -3.482008   -3.212478    0.151991
N      2.906952   -1.425168   -0.069625
N     -0.622863   -0.086639    0.418169
O      2.830712    0.031784   -2.450859
O      2.849775    0.313387    1.428242
O      5.223122   -1.933780    1.117484
O      8.834437   -0.586460   -0.521808
O      7.963627   -1.725244    1.198843
H     -2.827743    3.254921   -1.687062
H     -1.948873    4.707436   -2.173354
H     -1.067967    3.203598   -1.557389
H     -2.806842    6.414898    0.319914
H     -3.853141    5.479327   -0.812732
H     -3.893402    5.153733    0.948788
H     -3.368813   -3.620260    2.233516
H     -2.573370   -4.817731    1.208970
H     -1.740309   -3.274729    1.473769
H     -5.262628   -1.932090    0.313381
H     -5.581870   -3.603544   -0.217271
H     -5.169459   -3.231225    1.522371
H      0.870871    2.162282    1.475557
H      0.076427   -3.567482   -0.910627
H      1.149121    4.503386    1.028579
H      0.591763    3.900330   -0.620760
H     -1.628274   -5.275449   -0.529856
H     -1.699979   -4.839861   -2.269969
H      7.380385    0.286771   -2.165043
H      5.245353    0.809428   -3.343155
H      0.899872   -2.405287    0.999905
H      1.316031   -1.772695    2.584529
H     -0.935951   -1.121753    2.156573
H      0.102205    0.268876    2.328627
H     -2.191938    5.112273    2.376037
H     -0.817082    3.869556    2.634527
H     -2.839681   -2.594769   -2.721230
H     -4.544254   -2.378219   -1.959197
H     -2.151346    0.975024   -0.526902
H     -2.502003    0.558167    1.147034
H     -0.954033   -0.169265   -1.586568
H      0.428525   -1.093090   -1.044645
H     -0.751073    5.982290    0.683118
H     -4.088750   -4.750126   -1.328377
H     -3.202540    2.980744    1.306049
H     -3.385424   -1.055457   -0.352817
H      2.848527    0.562552   -3.308794
H      3.830400    0.530158    1.187226
H      5.944633   -2.214667    1.685176
H      8.601443   -1.438247    1.924212
