36

C     -3.387890    2.094357   -1.477540
C      0.736810   -3.648388    1.297492
C     -3.609513    0.602565   -1.410361
C      3.266548    2.709979    0.126157
C      2.940204    1.890639    1.204194
C      2.671821    2.452943   -1.089511
C      2.045285    0.847684    1.063117
C      1.782733    1.406117   -1.202232
C      1.237295   -1.792495   -0.104111
C     -0.935382   -2.044560    0.687646
C      1.459065    0.591822   -0.128719
C      0.489571   -0.500417   -0.378570
C     -0.603147   -0.561904    0.655873
C     -1.829576    0.155355    0.226523
N      0.238323   -2.751844    0.277098
O     -2.346549    1.009553    0.987850
O     -2.441655   -0.075768   -0.993628
H     -2.282624    2.310330   -1.422914
H     -3.787310    2.549162   -2.405091
H     -3.843265    2.597389   -0.599348
H      0.605842   -3.123880    2.277570
H      0.104547   -4.565169    1.312519
H      1.795170   -3.903680    1.106719
H     -4.475492    0.389632   -0.745633
H     -3.875167    0.232942   -2.420486
H      3.978719    3.534513    0.252444
H      3.415116    2.105920    2.149156
H      2.907663    3.073057   -1.940596
H      1.799335    0.218130    1.906597
H      1.343960    1.252090   -2.190743
H      1.875101   -1.587616    0.803764
H      1.869732   -2.107965   -0.950159
H     -1.724921   -2.248769   -0.093909
H     -1.339503   -2.376477    1.646324
H      0.138800   -0.529212   -1.410291
H     -0.219648   -0.206034    1.606911
