70

C     -8.179808   -1.077580    0.655837
C     -3.973708    3.370877   -1.781930
C     -4.333867    3.892219   -0.561295
C      8.347040    1.119248    0.423925
C     -3.448681    2.102430   -1.838259
C     -4.184503    3.180306    0.609173
C      8.345110    0.172249    1.579789
C     -0.586797   -1.179022   -0.075525
C      0.770256   -1.295208   -0.217297
C      7.003592    1.826733    0.556781
C      3.913726   -1.119876   -0.827728
C     -0.605747    0.805454   -1.312464
C     -3.445460   -0.988742   -1.369130
C      2.912421    0.960797   -1.969613
C     -6.876588   -1.843332    0.749961
C      2.821283   -0.215047   -1.219250
C     -1.316649   -0.137318   -0.611407
C      1.475257   -0.336113   -0.928133
C     -3.286693    1.362853   -0.673081
C     -3.649744    1.892167    0.537195
C      0.777395    0.714327   -1.474108
C      4.315349   -0.954708    0.638655
C      6.902918   -0.188482    1.793068
C     -4.200170   -1.884516   -0.428328
C      6.552332   -1.547160    1.384857
C     -5.434675   -2.423801   -1.059692
C     -5.772617   -1.004849    1.255472
C      4.755499    0.478026    0.764941
C     -3.256465   -0.316603    0.931629
C     -2.751999   -0.012231   -0.456558
N      1.689479    1.477147   -2.097271
N     -6.598699   -2.400656   -0.536214
N      5.417895   -1.823954    0.890713
N     -3.413778    0.959294    1.587120
N      6.130186    0.748399    0.986054
N     -4.492573   -1.016798    0.681928
O      7.496434   -2.574056    1.543725
O     -5.288727   -2.992996   -2.316692
O     -6.048647   -0.256522    2.257807
O      3.944138    1.429943    0.680211
H     -8.394399   -0.499971    1.579826
H     -8.229989   -0.440767   -0.254083
H     -8.991323   -1.835608    0.563688
H     -4.097486    3.948290   -2.711988
H     -4.747472    4.906314   -0.564943
H      9.156803    1.866780    0.454412
H      8.345413    0.527555   -0.516333
H     -3.157226    1.650043   -2.802569
H     -4.471164    3.603082    1.552664
H      8.913011   -0.762204    1.381128
H      8.720639    0.659605    2.505869
H     -1.121922   -1.924730    0.475107
H      1.344540   -2.115176    0.204200
H      7.062458    2.641972    1.311583
H      6.744001    2.223722   -0.445392
H      3.592349   -2.176045   -1.002498
H      4.803855   -0.958414   -1.476741
H     -1.036603    1.679982   -1.784344
H     -4.201074   -0.443935   -1.984967
H     -2.731539   -1.547206   -2.011041
H      3.833790    1.341463   -2.354854
H     -7.042300   -2.662468    1.499912
H      3.430635   -1.155098    1.269014
H      6.614800   -0.060589    2.861757
H     -3.584406   -2.740930   -0.073087
H     -2.558183   -0.912680    1.529532
H      1.484247    2.360195   -2.617120
H     -3.361748    1.128404    2.594575
H      7.195825   -3.510962    1.802113
H     -5.939247   -3.693524   -2.683932
