39

C      1.184636    3.047580   -0.022007
C     -3.424617    1.791953    0.466119
C     -3.085518   -1.348475   -0.637559
C     -2.603851   -0.565260    1.640159
C      3.275148    1.662900   -0.319791
C      1.918284    1.765608   -0.165936
C     -2.349174    1.020002   -0.262905
C      3.931141    0.438900   -0.452232
C      1.203575    0.564665   -0.146946
C      3.218798   -0.740439   -0.432429
C      1.855745   -0.641970   -0.278108
C     -0.815133   -0.717335    0.010994
C      1.262506   -1.869662   -0.273763
C     -0.108044   -1.902074   -0.125102
C     -0.165184    0.522018    0.001008
C      3.538471   -2.173222   -0.538323
C     -2.254162   -0.413799    0.183786
N      2.284187   -2.856149   -0.434563
O      5.304528    0.359631   -0.606737
O     -0.755925   -3.121446   -0.114354
O      4.682119   -2.659392   -0.687755
O     -1.074415    1.533797    0.150698
H      1.900670    3.880228    0.102684
H      0.548047    3.040637    0.898805
H      0.548169    3.167903   -0.910122
H     -3.911000    1.198908    1.268918
H     -4.262112    2.065529   -0.236216
H     -3.041321    2.733893    0.903047
H     -2.696231   -1.505267   -1.664474
H     -3.062876   -2.341850   -0.134023
H     -4.150777   -1.033547   -0.641376
H     -2.078795   -1.443340    2.050744
H     -3.688604   -0.779240    1.714998
H     -2.332747    0.333686    2.229140
H      3.850742    2.576340   -0.337740
H     -2.460611    1.103708   -1.354946
H      2.155330   -3.887101   -0.471410
H      5.905710    1.175450   -0.632322
H     -0.246710   -3.983768   -0.212813
