39

C      1.623616    2.806518    0.095048
C     -3.295127    2.191339   -0.032033
C     -2.869471   -0.280585   -1.369763
C     -3.155686   -0.914957    1.030881
C      3.504748    1.225803    0.028899
C      2.144030    1.441435    0.047510
C     -2.229620    1.286637    0.478678
C      4.022367   -0.046304   -0.015628
C      1.242208    0.371929    0.021723
C      3.151013   -1.142773   -0.042555
C      1.804121   -0.879402   -0.022545
C     -0.917723   -0.586967    0.010655
C      1.037512   -2.009669   -0.051314
C     -0.353758   -1.845637   -0.033893
C     -0.126634    0.561377    0.039780
C      3.278928   -2.582403   -0.088882
C     -2.339800   -0.131887    0.037447
N      1.932744   -3.107336   -0.093608
O      5.371622   -0.300860   -0.035362
O     -1.115737   -2.996799   -0.063368
O      4.358663   -3.208712   -0.117976
O     -0.916578    1.695929    0.082501
H      2.455156    3.507065   -0.120437
H      0.851751    3.017945   -0.672640
H      1.276029    3.042399    1.122272
H     -2.893276    3.189009   -0.323483
H     -3.999268    2.403631    0.823269
H     -3.905188    1.774296   -0.836456
H     -2.612446   -1.309987   -1.706427
H     -2.309851    0.443096   -1.997934
H     -3.956174   -0.173940   -1.440795
H     -2.705640   -0.787736    2.027693
H     -3.181864   -1.992441    0.763244
H     -4.172500   -0.481614    1.033851
H      4.229960    2.044853    0.048371
H     -2.195005    1.298986    1.607483
H      1.661356   -4.098477   -0.122360
H      6.019701    0.491780   -0.016062
H     -0.714177   -3.915542   -0.095780
