90

C      9.116993   -1.272852    1.298650
C     -6.147396    0.047984   -1.670455
C     -6.851620   -1.650724   -0.047787
C     -1.221368    2.421367    1.713624
C     -1.244416   -0.875089    3.549502
C      8.751765   -0.663282   -0.041874
C      7.230745   -0.518299   -0.085177
C      6.557978   -1.839493    0.066124
C      5.060997   -1.755877    0.013529
C      4.569561   -0.890944    1.136910
C      3.076537   -0.762846    1.177527
C      2.878561    1.200582   -0.382304
C      1.990106    2.908346   -1.997804
C     -1.687874   -2.226533    0.624147
C     -4.759253   -1.983785   -1.390612
C     -3.299353    1.386200    1.084512
C     -2.839090   -3.819739   -0.758974
C      1.784052    1.973690   -1.001252
C     -2.666773   -2.398739   -0.219989
C      2.445988   -0.164721   -0.043411
C     -3.534771   -1.355873   -0.672246
C      0.932046    3.624553   -2.518407
C     -1.361200   -0.943919    1.250595
C     -4.237022    0.845268    0.076206
C      0.510576    1.758969   -0.528855
C     -0.342596    3.416461   -2.050304
C     -1.118210    0.246396    0.434478
C     -0.539500    2.481728   -1.056167
C      0.364022    0.726472    0.526075
C     -1.442115    4.174704   -2.600126
C     -5.671454   -0.999999   -0.745479
C     -1.884551    1.469882    0.704607
C     -4.492020   -0.656224    0.181388
O     -2.711231   -3.825578   -2.146486
O      1.176646    4.571079   -3.535581
O     -5.472775    1.497776    0.125248
O     -1.223476    5.018469   -3.502236
O     -2.755283    4.024676   -2.183314
O     -4.830976   -1.115158    1.421910
O     -2.027249   -0.721734    2.452059
O      1.080484   -0.380705    0.061964
O     -1.823471    2.222826   -0.531177
H      9.291689   -2.367187    1.204189
H      8.283809   -1.109853    2.038472
H     10.028447   -0.819557    1.725510
H     -7.076321    0.543542   -1.256118
H     -6.565925   -0.494285   -2.576768
H     -5.424415    0.744590   -2.079225
H     -6.960774   -2.726104   -0.355741
H     -7.807859   -1.164155   -0.247772
H     -6.681138   -1.704998    1.064078
H     -0.484872    3.092346    1.236467
H     -2.022363    3.136387    2.079663
H     -0.867451    1.918380    2.610204
H     -0.843505   -1.932379    3.580857
H     -1.908922   -0.822643    4.454595
H     -0.449738   -0.146387    3.715054
H      9.172977    0.340807   -0.153106
H      9.033015   -1.350441   -0.851540
H      6.985603   -0.126697   -1.095266
H      6.969853    0.248178    0.650382
H      6.893704   -2.242645    1.071523
H      6.925801   -2.592523   -0.668439
H      4.698009   -2.817442    0.170547
H      4.736462   -1.388238   -0.983506
H      5.099342    0.054608    1.153900
H      4.851526   -1.424390    2.090703
H      2.807515   -0.208998    2.101482
H      2.665245   -1.788511    1.305990
H      3.196619    1.815197    0.492093
H      3.711222    1.208610   -1.151672
H      3.003147    3.048082   -2.342875
H     -1.067221   -3.146206    0.875608
H     -4.724993   -1.931447   -2.491715
H     -5.011628   -2.994138   -1.088796
H     -3.552279    0.958152    2.062652
H     -3.621086    2.474737    1.226109
H     -2.015459   -4.486186   -0.405778
H     -3.755495   -4.290667   -0.372939
H      2.767038   -0.829041   -0.904464
H     -3.142688   -0.664381   -1.481210
H     -0.306837   -1.170957    1.688273
H     -3.801261    1.042493   -0.929973
H     -1.130741   -0.013052   -0.665827
H      0.611617    1.045717    1.530530
H     -2.496091   -2.898340   -2.436863
H      2.121441    4.709858   -3.867664
H     -5.627768    1.776859    1.045942
H     -3.483018    4.617233   -2.558307
H     -4.366246   -1.981103    1.601703
