57

C      2.064259    1.063766   -1.184379
C      4.623291   -0.884037    0.267430
C      4.477421    1.321914   -0.463097
C     -2.404992    4.112068    0.200798
C     -4.617790   -3.179751   -0.370808
C     -3.211036    3.216016   -0.494745
C     -1.193181    3.649488    0.639394
C     -4.281103   -2.392846    0.717946
C     -3.878718   -3.072371   -1.518245
C      1.476058   -2.054924    1.984964
C     -2.796285    1.916192   -0.725894
C     -0.780761    2.329721    0.399194
C     -3.196483   -1.511889    0.611976
C     -2.798029   -2.187216   -1.606921
C      2.130793   -0.933960    1.951582
C      0.325642   -1.968444    1.110862
C      2.453096    0.136573   -0.114850
C     -1.566350    1.460821   -0.276872
C     -2.459327   -1.406015   -0.535873
C      1.437074   -0.011472    1.017986
C      0.290826   -0.756814    0.536245
N      3.796258    0.308621    0.374697
P     -1.065987   -0.240770   -0.606510
C      0.580000    0.987935   -0.026429
C      1.220928   -0.161423   -0.109185
C     -0.869219    0.767630   -0.017967
C      0.173052   -1.232827   -0.160867
C     -1.116908   -0.520439   -0.095762
Fe     0.000000    0.000000    0.000000
H      1.058456    0.832189   -1.576288
H      2.016880    2.104086   -0.764970
H      2.774482    1.069316   -2.015889
H      5.026382   -1.196383    1.268476
H      4.099270   -1.746421   -0.195006
H      5.531893   -0.617945   -0.303699
H      4.673501    0.921758   -1.471446
H      3.998310    2.291546   -0.422765
H      5.504123    1.436971    0.000408
H     -2.762524    5.141247    0.375151
H     -5.465954   -3.871202   -0.276562
H     -4.168360    3.609725   -0.822361
H     -0.538319    4.310812    1.184000
H     -4.872947   -2.497847    1.610250
H     -4.148281   -3.685071   -2.354928
H      1.770276   -2.931337    2.603511
H     -3.457365    1.248578   -1.265097
H      0.176371    2.018210    0.765193
H     -2.924670   -0.881440    1.470964
H     -2.266629   -2.157493   -2.544347
H      3.062846   -0.680806    2.520161
H     -0.421757   -2.728453    0.925611
H      2.509340   -0.904712   -0.625248
H      1.076586    1.946523    0.026649
H      2.268074   -0.373953   -0.138835
H     -1.569241    1.573181    0.043899
H      0.311564   -2.004504    0.588709
H     -2.074836   -0.982123   -0.110212
