23

C     -1.596727   -0.464714    1.781299
C     -1.232975    0.438259   -1.896167
C     -1.727833   -0.542776    0.283674
C      0.374398    0.788645   -0.005179
C     -1.054267    0.594643   -0.425363
C      2.609772   -0.294386   -0.053996
N      3.144683    0.822236    0.359749
N      1.226733   -0.311316   -0.373838
S      3.623678   -1.756863   -0.204875
H     -1.342247    0.556082    2.072335
H     -2.546405   -0.766192    2.301080
H     -0.763966   -1.155994    2.070059
H     -0.671635    1.234108   -2.431614
H     -2.322705    0.626513   -2.118096
H     -1.016961   -0.566524   -2.286126
H     -2.828227   -0.458350    0.052111
H     -1.430312   -1.536472   -0.105349
H      0.764183    1.726755   -0.450495
H      0.424527    0.882113    1.098586
H     -1.601758    1.528774   -0.122518
H      2.589973    1.681778    0.457828
H      0.863561   -1.145156   -0.880431
H      4.514510   -1.881162    0.877324
