21

C     -2.039560   -0.812507    0.867890
C     -0.650677    1.683158   -0.346871
C     -1.614552   -0.637845   -0.542460
C      0.750006   -0.309960   -0.074590
C      2.955555   -0.194899    0.276025
C     -0.475312    0.286466   -0.775137
Cl     4.499151    0.626494   -0.046096
O      1.899430    0.411733   -0.398738
H     -2.810715   -1.612182    0.896471
H     -1.185008   -1.215505    1.478470
H     -2.494092    0.075445    1.331796
H     -0.870098    2.373925   -1.213841
H     -1.458044    1.873021    0.380737
H      0.279341    2.089682    0.108772
H     -2.515445   -0.315777   -1.141230
H     -1.339681   -1.634376   -0.948015
H      0.609071   -0.203238    1.024878
H      0.902937   -1.364044   -0.337551
H      3.022182   -1.265006   -0.048633
H      2.767798   -0.116253    1.367354
H     -0.232286    0.261667   -1.859231
