23

C     -2.490220    1.256599    0.212124
C     -0.417769   -1.924506    0.164662
C     -2.105297   -0.179215   -0.041617
C      0.329999    0.357909   -0.203093
C     -0.717916   -0.483775    0.456015
C      2.761281    0.741204   -0.248044
N      2.612073    1.763489   -1.009212
N      1.647770    0.051346    0.293936
S      4.421936    0.169474    0.139966
H     -2.053353    1.933465   -0.551224
H     -2.162671    1.516103    1.248903
H     -3.593515    1.331456    0.102568
H     -0.643645   -2.087682   -0.925833
H     -1.078625   -2.620481    0.718810
H      0.647829   -2.113465    0.335904
H     -2.819301   -0.817142    0.524461
H     -2.201984   -0.444770   -1.101749
H      0.337798    0.136907   -1.297706
H      0.139153    1.448966   -0.095502
H     -0.693534   -0.318537    1.567007
H      1.668662    2.109413   -1.246094
H      1.838316   -0.663144    1.050985
H      4.573014   -1.163615   -0.323152
