18

C     -1.569464   -1.084879    0.499398
C      0.463244    1.969805   -0.516551
C     -1.230143    0.380113    0.265037
C      1.709734   -1.193149   -0.001115
C      0.167941    0.511661   -0.300158
Cl     2.770685   -1.852952    1.291646
O      1.033057   -0.135511    0.522752
H     -1.604024   -1.655281   -0.450829
H     -0.828050   -1.563523    1.162700
H     -2.577668   -1.154481    0.952799
H      1.144053    2.151205   -1.349011
H      0.765297    2.415224    0.439559
H     -0.516379    2.450213   -0.798105
H     -1.954273    0.776987   -0.466775
H     -1.317274    0.892559    1.245044
H      0.997471   -1.968229   -0.341772
H      2.362499   -0.963047   -0.859626
H      0.183293    0.023283   -1.294993
