18

C      1.772087   -0.921117    0.296851
C      0.215523    1.594927    0.660492
C      0.939929   -0.323477   -0.780865
C     -2.270616   -0.627845   -0.009712
C     -0.241413    0.470621   -0.215664
Cl    -2.090847   -1.248370   -1.665830
O     -0.994169   -0.440768    0.528717
H      2.194673   -1.913385    0.054332
H      1.212140   -1.034743    1.257676
H      2.647523   -0.263915    0.527493
H     -0.080414    1.451720    1.722850
H      1.332413    1.653206    0.559434
H     -0.209386    2.572968    0.314734
H      1.519183    0.420889   -1.391514
H      0.525243   -1.138274   -1.403924
H     -2.826635    0.335660   -0.026950
H     -2.762057   -1.393537    0.626757
H     -0.883179    0.805441   -1.054877
