28

C     -2.883116    1.009501   -0.261475
C     -0.316527    1.488456   -1.376150
C     -1.860061   -0.145890   -0.413053
C      2.933813   -1.935688    0.182606
C      3.033806   -0.607584   -0.120938
C      1.675026   -2.487233    0.339947
C      1.884738    0.128116   -0.255965
C      0.524560   -1.729042    0.199651
C      0.616559   -0.384547   -0.109974
C     -0.518625    0.486351   -0.271288
N     -0.655034    0.485812    2.073277
N     -0.583843    1.323934    0.976658
H     -3.401032    1.242492   -1.201799
H     -2.404624    1.950269    0.095076
H     -3.602126    0.742081    0.575745
H      0.346159    1.088591   -2.184708
H      0.083515    2.444369   -1.001954
H     -1.267101    1.764374   -1.915275
H     -2.112353   -0.928172    0.287531
H     -2.043348   -0.530491   -1.442368
H      3.831272   -2.530914    0.290452
H      4.027000   -0.186041   -0.245922
H      1.640229   -3.547075    0.576283
H      2.019450    1.195761   -0.491435
H     -0.435709   -2.156308    0.334202
H     -1.128383   -0.420353    1.886074
H      0.250372    0.392798    2.548848
H      0.345382    1.846432    0.925954
