25

C      2.735302   -0.009936   -0.895683
C     -3.498974   -0.144296    0.757744
C     -3.072886   -0.919318   -0.286226
C     -2.693927    0.845764    1.275602
C     -1.812316   -0.691998   -0.817675
C     -1.438055    1.062099    0.735850
C      0.349339    0.514337   -0.900591
C      1.411905   -0.315709   -0.222969
C     -0.992158    0.290743   -0.316379
N      2.411059   -0.690301    1.881183
N      1.435588    0.016228    1.183105
H      3.566608   -0.618262   -0.493536
H      2.611697   -0.102741   -1.985645
H      2.940113    1.074380   -0.676677
H     -4.467227   -0.301264    1.183873
H     -3.681247   -1.702601   -0.713179
H     -3.046523    1.459964    2.111979
H     -1.500426   -1.325978   -1.649462
H     -0.820242    1.830080    1.141589
H      0.567736    1.605568   -0.823635
H      0.273422    0.296646   -1.981338
H      1.188528   -1.373713   -0.377597
H      3.327690   -0.174204    1.916138
H      2.565740   -1.651497    1.482324
H      1.639255    1.026009    1.293901
