26

C     -2.283643    1.357325   -1.257790
C      4.333619   -0.092797    0.873917
C      0.222491    0.640355    0.524050
C      0.027925   -1.179866   -0.958396
C      1.596597    0.396907    0.642262
C      1.393637   -1.431413   -0.848545
C     -0.575000   -0.142746   -0.274981
C      2.177330   -0.633689   -0.040947
C     -2.711491    0.352420    0.882369
C     -2.021822    0.111804   -0.397333
O     -2.381734    1.234601    1.723026
O     -3.803940   -0.436477    1.205233
O     -2.679211   -0.925988   -1.060875
O      3.544794   -0.916209    0.044882
H     -2.160221    2.243351   -0.582662
H     -3.301217    1.277463   -1.651676
H     -1.522215    1.382543   -2.049675
H      5.398457   -0.327732    0.815133
H      4.217383    0.982401    0.591409
H      3.969505   -0.206910    1.925334
H     -0.169948    1.463886    1.083443
H     -0.578058   -1.798140   -1.584010
H      2.224994    1.010474    1.269210
H      1.869640   -2.245372   -1.384274
H     -4.357257   -0.300182    2.042047
H     -2.430616   -1.816008   -0.704038
