25

C     -2.850507    1.229591   -0.973740
C      2.378278   -0.368792   -0.630695
C     -1.693349   -1.900379    0.766750
C     -2.501568   -0.950003    0.136062
C     -0.348176   -1.593581    0.922532
C     -0.626187    0.504625   -0.132964
C     -1.978648    0.238905   -0.309742
C      0.186161   -0.412386    0.483002
C      1.930705    1.194595    1.202074
C      1.627840   -0.156478    0.679463
O      2.498167    1.335219    2.337837
O      1.643973    2.371985    0.544955
O      2.100439   -1.087586    1.618716
H     -3.871564    1.095580   -0.571523
H     -2.880704    1.070594   -2.064745
H     -2.461282    2.262047   -0.762500
H      3.127445    0.431929   -0.776936
H      2.889368   -1.335358   -0.596564
H      1.687331   -0.356209   -1.480973
H     -2.129298   -2.827754    1.108148
H     -3.552413   -1.151923   -0.003445
H      0.268416   -2.320988    1.404794
H     -0.193494    1.432954   -0.478796
H      2.283165    3.144882    0.655015
H      2.465905   -1.851469    1.113105
