29

C      0.985370   -0.878677    1.612488
C      2.636370   -0.276689   -0.041175
C     -1.607810   -1.630494    0.361577
C      0.544254    1.112406   -1.151740
C     -0.630075    1.443918    1.050863
C      0.726996    1.310255    0.344035
C      0.234640   -0.353538   -0.795201
C     -1.641028    0.884902    0.203478
C      1.167157   -0.158259    0.330857
C     -1.169658   -0.433256   -0.443184
B     -3.294460   -0.176111   -0.642867
O     -2.843989    0.402826    0.662050
O     -2.085440   -0.366115   -1.502850
H      0.049034   -0.800677    2.130832
H      1.360200   -1.923545    1.458210
H      1.757114   -0.444348    2.323207
H      3.264314   -0.384914    0.867156
H      3.038745    0.560213   -0.594170
H      2.791764   -1.226010   -0.620340
H     -2.406621   -2.246463   -0.156549
H     -2.133907   -1.318999    1.312239
H     -0.803536   -2.366929    0.539712
H     -0.241779    1.657965   -1.649759
H      1.488648    1.254838   -1.693587
H     -0.571957    1.129119    2.106656
H     -0.772465    2.568120    1.118024
H      1.487718    2.025822    0.651911
H      0.613777   -1.010680   -1.607503
H     -1.943376    1.645318   -0.571526
