30

C      3.637785   -0.946582   -1.100187
C     -3.215095   -2.210930    0.853330
C      3.488292   -0.645570    0.369065
C      2.449220    0.436087    0.582202
C      1.096405    0.024430    0.054497
C      0.138559    1.158197    0.311522
C     -2.784107   -1.001567    0.104345
C     -1.259786    0.825058   -0.193113
C     -2.165218    1.946105    0.071710
N     -1.734260   -0.349950    0.481390
O     -3.550484   -0.624228   -0.989412
O     -3.173134    1.778858    0.796265
O     -1.943209    3.212397   -0.461234
H      3.786711   -0.012435   -1.643388
H      4.534645   -1.598565   -1.233969
H      2.719039   -1.425768   -1.484520
H     -2.545743   -2.386003    1.722876
H     -4.288365   -2.144520    1.146031
H     -3.125130   -3.121771    0.202077
H      3.184397   -1.545129    0.923068
H      4.453979   -0.247162    0.738249
H      2.755803    1.370046    0.066660
H      2.330463    0.614066    1.671272
H      1.102639   -0.156089   -1.036519
H      0.765429   -0.916968    0.532517
H      0.139580    1.362483    1.383690
H      0.479640    2.030420   -0.274452
H     -1.224341    0.587067   -1.281914
H     -3.320173    0.211242   -1.516451
H     -2.733541    3.776780   -0.795605
