29

C     -3.195451    0.450443    0.389704
C     -2.569337   -1.798997    0.548322
C      2.888174   -0.283583   -0.196358
C      1.249537   -1.892216   -0.959020
C     -3.558519   -0.852584    0.600412
C      1.500277   -0.644298   -0.071726
C     -1.886938    0.780603    0.139580
C     -1.257643   -1.446316    0.293381
C      3.427438    0.781454    0.682341
C     -0.844838   -0.165111    0.084306
C     -0.443329    2.484063   -0.402620
C      0.598327    1.545200   -0.451616
Br    -5.387259   -1.335128    0.953385
N     -1.676178    2.097109   -0.104964
N      0.416566    0.257853   -0.209022
O      2.766910    1.116429    1.693299
O      4.617970    1.394190    0.410924
O     -0.229109    3.699280   -0.638342
O      1.692526    2.024118   -0.752347
S     -0.077962   -2.799127   -0.020198
Na     0.000000    0.000000    0.000000
H     -3.979824    1.230444    0.426689
H     -2.817021   -2.841089    0.708527
H      3.492062   -1.202333    0.130679
H      3.273143   -0.166885   -1.248263
H      0.912220   -1.614821   -1.944017
H      2.121972   -2.529078   -0.986338
H      1.400527   -1.093907    0.991518
H     -2.434244    2.804283   -0.068234
