29

C     -3.151021   -0.628924    0.330176
C     -2.355972    0.920112    1.883075
C      2.882635    0.392540   -0.243841
C      1.239472    2.097888    0.358900
C     -3.400192    0.179271    1.399194
C      1.523718    0.594646    0.233001
C     -1.894883   -0.705404   -0.246853
C     -1.113721    0.840063    1.304321
C      3.402885   -0.974709   -0.327147
C     -0.807512    0.042733    0.237413
C     -0.606308   -1.584397   -1.936093
C      0.479135   -0.845311   -1.452079
Br    -5.144735    0.275868    2.204345
N     -1.783310   -1.507810   -1.325345
N      0.403449   -0.050473   -0.389235
O      4.388597   -1.251934   -1.032620
O      2.784450   -1.982689    0.402249
O     -0.450344   -2.315235   -2.948701
O      1.532256   -0.966019   -2.083200
S      0.133348    2.055946    1.885080
Na     0.000000    0.000000    0.000000
H     -3.968178   -1.215318   -0.059789
H     -2.502709    1.585794    2.741179
H      3.135805    0.983147   -1.183009
H      3.566978    0.912892    0.508083
H      2.152995    2.606658    0.607979
H      0.660411    2.418277   -0.494974
H      1.514169    0.189227    1.306161
H     -2.621420   -2.066840   -1.678270
