30

C      4.453232    0.159953   -0.417214
C     -3.766073   -0.236518   -0.627716
C      2.968439    0.439871   -0.277257
C      2.222230   -0.643525   -0.996539
C      0.739347   -0.498300   -0.943392
C      0.245755   -0.519104    0.484708
C     -2.866239    0.935670   -0.574299
C     -1.277697   -0.369969    0.537156
C     -1.640343   -0.403659    1.962014
N     -1.706205    0.872521   -0.030975
O     -3.278219    2.135243   -1.122027
O     -1.356861   -1.402127    2.647333
O     -2.287936    0.664206    2.526090
H      4.636918   -0.415890   -1.354930
H      4.963930    1.148501   -0.445915
H      4.850717   -0.435852    0.410849
H     -3.761393   -0.776860    0.360841
H     -4.796461    0.096241   -0.867667
H     -3.462212   -0.953106   -1.435151
H      2.685116    1.407573   -0.749336
H      2.747737    0.509119    0.788442
H      2.535745   -0.600964   -2.069924
H      2.484629   -1.658922   -0.649585
H      0.487697    0.518157   -1.351070
H      0.270870   -1.260291   -1.564455
H      0.682487    0.292163    1.084262
H      0.461635   -1.489023    0.978413
H     -1.753594   -1.214183   -0.016269
H     -2.864559    2.996099   -0.764183
H     -2.618690    0.702973    3.480148
