38

C      5.654781    0.632307   -1.133645
C     -3.736991   -2.504712   -0.866124
C     -3.883794    2.692092   -0.696304
C     -4.870089    1.850085   -1.136022
C     -2.677093    2.209606   -0.225259
C     -4.629960    0.485666   -1.098407
C      3.502716    0.277834    0.073833
C     -0.005452    0.143555    0.753263
C      1.514608   -1.693186    1.426189
C      4.783530    0.564094    0.093792
C      0.375477   -1.268790    0.906031
C     -2.476647    0.856285   -0.203353
C     -1.391241    0.071589    0.204442
C     -3.449975   -0.013429   -0.638992
C      3.011478    0.310162    1.460266
C     -1.768010   -1.229962   -0.005728
C     -0.709382   -2.143268    0.407976
C      5.224446    0.801222    1.460385
N     -3.022389   -1.283054   -0.520341
O     -0.694250   -3.416210    0.362303
O      6.415417    1.099867    1.797441
O      2.530676   -0.913139    1.910749
O      4.124538    0.638239    2.256113
H      5.934760    1.679135   -1.370269
H      6.585332    0.074869   -0.865461
H      5.187913    0.103479   -1.978664
H     -4.809155   -2.245376   -1.004605
H     -3.312698   -2.954385   -1.786270
H     -3.702535   -3.256817   -0.058093
H     -4.051052    3.756535   -0.717455
H     -5.807682    2.252450   -1.500807
H     -1.887791    2.859921    0.125589
H     -5.410561   -0.165248   -1.445737
H      2.941587    0.061595   -0.825842
H      0.645776    0.678462    0.016764
H     -0.050151    0.637916    1.737845
H      1.627971   -2.798382    1.459043
H      2.285893    1.148992    1.625355
