29

C     -3.110006    0.487470    0.794355
C     -1.813007    2.400084    0.485333
C      2.474559   -0.740097   -0.224769
C      1.587861    1.161965   -1.542066
C     -2.991807    1.848469    0.901492
C      1.361599   -0.227975   -1.102153
C     -2.100866   -0.334521    0.290636
C     -0.797896    1.598156   -0.018447
C      2.685875    0.009855    1.025232
C     -0.891509    0.232609   -0.135696
C     -1.380409   -2.483924   -0.264883
C     -0.200834   -1.923425   -0.679909
Br    -4.391359    2.951061    1.596080
N     -2.312810   -1.664144    0.216448
N      0.064567   -0.579434   -0.624502
O      2.018146    0.982547    1.422443
O      3.742877   -0.389854    1.879281
O     -1.545439   -3.742465   -0.349911
O      0.681761   -2.726088   -1.142617
S      0.716512    2.376012   -0.552986
H     -4.027391    0.021717    1.113858
H     -1.630518    3.461119    0.531796
H      3.458546   -0.626764   -0.794971
H      2.407907   -1.840242   -0.028749
H      1.259991    1.297559   -2.614797
H      2.676549    1.419147   -1.480376
H      1.486555   -0.854490   -2.065518
H     -3.226337   -2.043572    0.544890
H      3.796882   -0.070773    2.820506
