38

C      5.441817    2.290840    0.778936
C     -4.142779   -0.863926    1.892084
C     -3.589022    0.909128   -3.012284
C     -4.725948    0.801633   -2.263532
C     -2.398868    0.503908   -2.430088
C     -4.704525    0.309308   -0.973372
C      3.497362    0.762637    0.375208
C      0.122719   -0.675427   -0.335061
C      1.620760   -1.600891    1.401786
C      4.783646    1.047310    0.312800
C      0.413048   -1.241482    0.998452
C     -2.371877    0.011132   -1.141005
C     -1.354127   -0.464365   -0.302599
C     -3.517130   -0.099261   -0.381213
C      3.252983   -0.561272   -0.189014
C     -1.895044   -0.838079    0.903914
C     -0.843485   -1.338775    1.780360
C      5.493759   -0.090809   -0.309293
N     -3.219730   -0.604013    0.828639
O     -0.945308   -1.765804    2.945972
O      6.734676   -0.182730   -0.535788
O      2.739429   -1.500751    0.657997
O      4.551370   -1.048164   -0.603286
H      5.730713    2.218404    1.862926
H      4.691697    3.115159    0.739892
H      6.299372    2.594574    0.173984
H     -4.338561    0.083882    2.435756
H     -5.126751   -1.166044    1.449933
H     -3.840222   -1.669468    2.569476
H     -3.659635    1.298894   -4.011737
H     -5.688458    1.102892   -2.664598
H     -1.486958    0.581672   -3.008345
H     -5.618193    0.229604   -0.389281
H      2.754373    1.415507    0.782038
H      0.425304   -1.340909   -1.156929
H      0.592429    0.336344   -0.465615
H      1.647388   -2.004689    2.432133
H      2.673776   -0.555970   -1.149247
