56

C     -6.259148    0.400124   -0.790338
C      0.753696   -0.160590   -3.554847
C     -4.865344    0.274690   -1.323832
C      5.582609   -1.653427    2.223998
C      6.165298   -1.082514    1.115583
C     -0.832156    3.016781    0.014306
C      4.227824   -1.475497    2.475340
C     -1.784669    2.042732   -0.568609
C      5.405482   -0.324950    0.240268
C      1.113588   -0.762481    2.582084
C     -2.283441   -1.604765   -0.882699
C      0.461535    2.452455    0.469645
C     -0.014459   -1.529906    2.013765
C     -1.595371   -1.924718    0.396886
C      3.461328   -0.725588    1.614448
C      2.133204   -0.372227    1.584370
C     -1.694571    0.743417   -0.331639
C      4.041954   -0.154713    0.506894
C     -2.684116   -0.147754   -0.952757
C      1.890694    0.415533    0.461517
C     -0.596608    0.279203    0.542174
C      0.641563    1.039215   -1.470341
C      0.632170    1.019781    0.016563
N      3.085838    0.511408   -0.150870
N     -0.420508   -1.115871    0.661616
O      0.562168    2.086404   -2.159033
O      0.743858   -0.167667   -2.141489
O     -3.935054   -0.055842   -0.363498
H     -6.881120    1.099034   -1.379438
H     -6.794657   -0.586556   -0.810985
H     -6.247549    0.713371    0.272365
H      1.777030   -0.235649   -3.967597
H      0.262560    0.723854   -3.981198
H      0.186259   -1.053638   -3.947383
H     -4.606674    1.254823   -1.799075
H     -4.907114   -0.467972   -2.165965
H      6.178639   -2.244482    2.905676
H      7.228840   -1.257738    0.973194
H     -0.635271    3.831080   -0.722714
H     -1.386928    3.526267    0.849952
H      3.750132   -1.915204    3.340270
H     -2.586212    2.447891   -1.219755
H      5.874215    0.118145   -0.626394
H      0.786309    0.170456    3.088828
H      1.615004   -1.379699    3.351332
H     -3.174721   -2.261099   -0.956299
H     -1.623134   -1.882855   -1.734081
H      0.488872    2.460745    1.588275
H      1.320726    3.016788    0.042709
H      0.224055   -2.607293    1.928585
H     -0.916112   -1.412723    2.647007
H     -2.291965   -1.898590    1.267746
H     -1.227210   -2.989397    0.321986
H     -2.808055    0.075782   -2.038290
H     -0.773279    0.683873    1.576965
H      3.229996    1.047554   -1.035221
