47

C      6.061042   -1.378095   -1.915283
C     -4.163409    1.331784   -0.674133
C     -4.507262   -0.338029    1.143231
C     -3.207256   -2.342717   -0.501496
C     -2.030643   -2.235712    0.394648
C     -3.660332   -1.032195   -1.087353
C      4.676347    0.679377   -1.410643
C      2.131115    2.053998    0.847115
C      5.344827   -0.383267   -1.028037
C     -1.504972   -0.851776    0.559369
C      0.861708    1.824936    1.097526
C      4.133497    1.380749   -0.262208
C     -0.001510    0.915970    0.319031
C     -2.220699    0.230924    0.362939
C     -0.150916   -0.434229    0.973618
C     -1.421553    1.464116    0.602742
C      5.287699   -0.456561    0.419104
C     -0.003482    2.362178    2.141289
C     -3.642776    0.068650   -0.046465
O      0.833763   -1.328455    0.561027
O      5.813531   -1.341586    1.163107
O      0.366224    3.176002    3.035907
O      2.714020    1.399446   -0.224901
O      4.548379    0.624039    0.849169
O     -1.285858    1.807880    1.953080
H      6.163248   -2.349843   -1.391419
H      7.114957   -1.022726   -2.105036
H      5.551276   -1.508917   -2.869356
H     -3.473876    1.614520   -1.486022
H     -5.176816    1.113297   -1.076331
H     -4.206071    2.155576    0.043810
H     -5.220904   -1.108187    0.785657
H     -5.083207    0.559054    1.467040
H     -3.844410   -0.694920    1.939220
H     -4.058896   -2.749928    0.085601
H     -3.066455   -3.048116   -1.361870
H     -2.211265   -2.623124    1.434214
H     -1.223970   -2.875218   -0.019364
H     -4.683096   -1.135919   -1.458456
H     -2.926446   -0.740470   -1.868255
H      4.565949    0.966173   -2.479478
H      2.690981    2.746006    1.481078
H      4.546613    2.413695   -0.242862
H      0.209567    0.882653   -0.747479
H     -0.097279   -0.252579    2.078277
H     -1.672130    2.288292   -0.062211
H      1.130745   -1.826747    1.363338
