69

C      2.081933   -0.957321   -2.272804
C     -0.314072    1.729676   -1.129243
C      0.451371   -0.812241    1.917876
C     -6.606397    0.247378   -0.992009
C     -3.513705   -2.289155   -1.126860
C     -5.813784    4.057429    0.179095
C      3.968193   -0.566636   -0.910426
C      4.970162   -0.153434   -0.048801
C      1.519649    0.285149   -0.576783
C     -3.270264   -2.319718    1.281291
C      9.337655    0.118040    1.609541
C      2.675733   -0.115888   -0.732773
C      0.206198    0.256249   -1.153626
C     -0.656371   -0.071598    1.191087
C     -5.240016   -0.297891   -0.902804
C      6.318751   -0.612244   -0.226630
C     -2.366849   -1.624545    2.210276
C      8.652292   -0.610469    0.516201
C      7.251210   -0.203540    0.602711
C     -4.128119    0.671781   -0.679679
C     -0.763362   -0.513821   -0.205141
C     -1.932961   -0.248599    1.977255
C      7.174933    0.725599    1.740029
C     -4.567982    1.903212    0.014530
C     -3.723487   -1.483181    0.152931
C     -3.068373   -0.120251    0.036272
N      8.339214    0.879580    2.272577
O      6.664064   -1.492120   -1.278758
O     -1.986019   -2.256072    3.202269
O      9.134316   -1.395535   -0.314556
O      6.014038    1.351593    2.186915
O     -4.102994    2.068836    1.244130
O     -5.362633    2.880862   -0.402308
O     -5.107299   -1.198122    0.159755
O     -2.000399   -0.254940   -0.786996
O     -2.882888    0.476318    1.253799
H      3.006131   -1.474119   -2.402021
H      1.942560   -0.104469   -2.817203
H      1.362126   -1.567832   -1.798923
H     -1.016237    1.903389   -0.323816
H     -0.690044    2.000923   -2.141269
H      0.589694    2.366249   -0.977939
H      1.064763   -1.399220    1.173103
H      0.066515   -1.591735    2.616174
H      1.126011   -0.136480    2.479358
H     -6.680786    1.001017   -1.810893
H     -7.047600    0.628653   -0.051162
H     -7.277705   -0.599115   -1.309142
H     -2.791140   -3.111458   -0.945371
H     -4.462077   -2.778900   -1.439438
H     -3.191677   -1.639592   -1.958449
H     -6.066122    4.855696   -0.553827
H     -6.794356    3.862171    0.695500
H     -5.061864    4.555451    0.843869
H      4.376334   -1.235204   -1.643113
H      4.639144    0.506298    0.700463
H      1.503398    0.946089    0.432353
H     -4.143383   -2.714618    1.885394
H     -2.719082   -3.236918    0.939441
H     10.129274    0.763066    1.149534
H      9.805983   -0.642621    2.301828
H      0.032696   -0.100751   -2.144348
H     -0.388276    0.990195    1.281335
H     -5.045297   -0.888974   -1.819968
H     -3.789327    1.010789   -1.710520
H     -0.495497   -1.570099   -0.310935
H     -1.757819    0.318318    2.940017
H      6.326403   -1.302746   -2.217138
H      6.095520    2.332163    2.454427
