69

C      7.679782    0.537761    1.651813
C      6.721002   -1.561237    3.522510
C      4.205210    0.914585   -1.513039
C      5.097884   -2.788363   -0.210269
C      7.661383   -0.923755    1.343639
C      1.212589    1.345914   -1.672692
C     -0.269950    1.532281   -1.727969
C      1.719998    0.381543   -0.964181
C     -0.826417    2.477455   -2.419959
C     -6.557605   -0.500422    1.681936
C     -5.425482   -2.088370    0.109452
C     -5.526088    0.366437    0.936158
C     -5.585941   -1.125198   -1.035458
C      5.197272   -1.221266    1.645515
C      3.538784   -0.917182   -0.075256
C     -6.213123    2.248878   -1.968937
C      6.568733   -1.692349    2.023128
C      3.159901    0.106868   -0.838742
C      4.942657   -1.313506    0.154137
C     -6.481917   -1.915228    1.163918
C     -5.329189    1.352336   -1.366014
C     -2.143403    2.924974   -2.684798
C     -3.493528    2.624653   -2.391805
C     -3.980627    1.562292   -1.593068
C     -4.473245    3.467614   -2.950367
C     -5.829548    0.254977   -0.531518
N     -5.767283    3.248285   -2.719878
O     -6.205940   -2.832408    2.192345
O     -2.047037    4.008723   -3.491791
O     -3.072612    0.743861   -1.051740
O     -4.120771    4.556788   -3.761208
O     -7.280980    0.394708   -0.569160
H      6.667397    0.920274    1.891039
H      8.128085    1.116260    0.797461
H      8.353792    0.721980    2.509763
H      7.762879   -1.322076    3.818929
H      6.327707   -2.475976    4.000887
H      6.068569   -0.712707    3.840651
H      4.565947    1.760786   -0.899505
H      3.709790    1.387423   -2.407875
H      5.022993    0.313801   -1.960245
H      6.172970   -2.992109   -0.422154
H      4.440191   -3.072260   -1.053406
H      4.765240   -3.399870    0.658017
H      7.569727   -1.095877    0.250824
H      8.637257   -1.374692    1.654554
H      1.846359    2.015335   -2.219289
H     -0.869691    0.869381   -1.179579
H      1.004623   -0.251519   -0.435977
H      0.001324    3.095204   -2.944886
H     -6.254170   -0.514209    2.753208
H     -7.573608   -0.102007    1.604857
H     -4.432846   -1.978878    0.566836
H     -5.521584   -3.114464   -0.307558
H     -5.636928    1.417682    1.288848
H     -4.552755   -0.062337    1.169639
H     -6.443693   -1.459919   -1.710704
H     -4.711184   -1.154229   -1.699299
H      5.009412   -0.244165    2.083921
H      4.475482   -1.938456    2.121457
H      2.739244   -1.498222    0.410911
H     -7.276466    2.086456   -1.791817
H      6.704010   -2.761389    1.748569
H      5.684446   -0.779814   -0.435836
H     -7.484551   -2.238381    0.763244
H     -7.075840   -2.998439    2.677227
H     -3.148063   -0.035507   -0.503443
H     -4.287866    4.516113   -4.758178
H     -7.462705    1.185157    0.027461
