72

C     -7.333904   -0.332735   -1.729033
C     -5.407660    1.831214   -2.108216
C     -2.942998    2.923581   -0.804236
C     -0.917328   -3.164983    2.369773
C     -3.314001   -0.993084    1.060876
C      4.536502   -3.867308   -1.524433
C     -6.697634    0.419472   -0.552699
C      0.329324   -1.276061    3.340923
C      5.685253    1.406388   -2.321348
C      5.826932    1.490997    0.045894
C      6.579502    2.484933   -2.367291
C      6.696133    2.537663    0.021397
C      1.653663   -1.232184    2.692291
C     -4.664687    1.521241    0.269100
C     -2.144696    1.049810    0.535613
C      4.847013   -1.508510   -1.362140
C     -5.311525    0.904345   -0.911770
C     -3.278167    1.915252    0.287640
C     -0.831609   -1.652423    2.458882
C     -2.043532   -0.208397    0.867352
C      5.317884    0.918347   -1.132318
C      7.080251    3.044487   -1.199726
C      4.452017   -0.251798   -0.881613
C      1.451561   -1.118107    1.178447
C      2.620445   -1.257783    0.377763
C      3.367342   -0.148969   -0.041301
C     -0.797615   -0.980951    1.096117
C      3.067736   -2.469263   -0.130901
N      4.143484   -2.572807   -0.970517
O      7.962832    4.107545   -1.167635
O      2.943425    1.074945    0.449250
O      2.487751   -3.542838    0.171559
O      0.410198   -0.307945    0.898500
H     -7.782019   -1.283996   -1.391687
H     -8.184019    0.262153   -2.126142
H     -6.545204   -0.535188   -2.477337
H     -6.444426    1.665382   -2.604685
H     -5.497832    2.885541   -1.780199
H     -4.708063    1.631679   -2.908609
H     -2.865162    2.387578   -1.763788
H     -1.874703    3.250483   -0.569052
H     -3.620781    3.770469   -0.802158
H      0.042897   -3.600157    2.775055
H     -1.724804   -3.572174    3.005109
H     -1.141606   -3.532620    1.345189
H     -3.666256   -1.335038    0.101549
H     -4.000157   -0.566841    1.782132
H     -3.024748   -1.992169    1.583106
H      5.271470   -4.389355   -0.900064
H      3.638509   -4.486918   -1.749985
H      5.035766   -3.692400   -2.524762
H     -6.683292   -0.295164    0.305074
H     -7.379319    1.232509   -0.262076
H      0.131520   -0.322637    3.920261
H      0.370034   -2.058750    4.156903
H      5.301408    0.987774   -3.237411
H      5.518635    1.096151    1.024281
H      6.917908    2.929288   -3.284539
H      7.063738    2.943198    0.949587
H      2.348325   -2.040381    2.913046
H      2.094866   -0.197608    2.953575
H     -5.124993    1.167945    1.250688
H     -5.235839    2.592328    0.278624
H     -1.109804    1.507983    0.429128
H      5.693426   -1.535749   -2.029731
H     -4.711445    0.018103   -1.303495
H     -3.266323    2.701624    1.220333
H     -1.738156   -1.295871    2.978924
H      0.930991   -2.212534    1.014531
H     -0.831140   -1.799911    0.347792
H      7.585835    5.065155   -1.132491
H      3.440872    1.906041    0.176291
