81

C     -6.074129   -1.543079   -2.169738
C     -1.722315    4.216229   -1.686209
C     -3.414686    3.504511   -0.281859
C      7.676225    0.752470    1.123378
C      6.668530    0.903256    2.232365
C     -8.305093   -2.996940    1.053692
C     -7.627402   -2.316931    0.080593
C      7.701723   -0.669886    0.620699
C     -7.685910   -3.200524    2.245263
C      5.252735    0.775505    1.911797
C     -3.747155    0.424626   -1.277899
C      3.275241   -0.385183    1.292229
C     -6.321848   -1.830742    0.283857
C     -4.228996   -0.894817   -0.709732
C     -2.242520    0.563850   -1.287053
C      8.767582   -0.871825   -0.419355
C     -6.374439   -2.727071    2.480828
C     -5.691063   -2.039791    1.491079
C     -3.641936   -1.113714    0.617560
C      0.504003    0.936235   -0.493324
C     -1.755866    1.928063   -0.851960
C     -4.303456   -1.647849    1.640874
C     -0.312481    1.954694   -1.189820
C     -2.244171   -0.685536    0.774693
C     -0.130823   -0.199113   -0.200189
C      1.890261    1.145058   -0.089379
C      8.578011   -0.033307   -1.606774
C     -5.695902   -1.004513   -0.773203
C     -1.529794   -0.494692   -0.519339
N     10.051573   -0.610381    0.229018
N      4.768148   -0.372570    1.194184
N      2.633185    0.508340    0.547999
N     -2.510027    3.035401   -1.338333
O     -5.805732   -2.962201    3.703029
O     -3.610081   -1.804011    2.827338
O      0.262275    2.709543   -1.965366
O     -1.768560   -0.520270    1.900895
O      0.546813   -1.235616    0.469287
O      2.392085    2.407038   -0.605455
O      7.497966   -0.142091   -2.291457
O      9.479804    0.912764   -2.095398
O     -6.241265    0.306188   -0.688265
O     -1.582951   -1.741852   -1.232917
H     -5.470994   -0.932100   -2.901921
H     -7.143657   -1.365581   -2.409886
H     -5.741205   -2.579612   -2.232857
H     -2.371055    5.145946   -1.551228
H     -1.397664    4.248514   -2.725785
H     -0.945821    4.337125   -0.914791
H     -4.428912    3.625202   -0.704220
H     -3.389918    2.855711    0.620040
H     -3.136464    4.513457    0.097806
H      8.668349    1.012362    1.513267
H      7.472154    1.428005    0.257241
H      7.019030    0.173522    3.028358
H      6.899058    1.921311    2.688056
H     -9.319863   -3.358522    0.848907
H     -8.137039   -2.169951   -0.857380
H      7.889088   -1.338477    1.509881
H      6.739079   -0.964538    0.101428
H     -8.164143   -3.714505    3.040201
H      4.677861    0.758964    2.886878
H      4.890051    1.721780    1.435776
H     -4.069328    0.422958   -2.348372
H     -4.267806    1.259599   -0.826888
H      3.062599   -1.471095    0.993434
H      3.001111   -0.400636    2.382777
H     -3.827373   -1.741686   -1.391569
H     -1.879507    0.445501   -2.366215
H      8.786672   -1.957749   -0.724465
H     -1.829807    1.943037    0.271294
H     10.716534   -1.411864    0.061172
H      9.926242   -0.516458    1.254701
H      5.038107   -1.271854    1.702884
H     -4.958796   -2.737958    4.062581
H     -3.395804   -1.045018    3.466489
H      0.255299   -1.537078    1.385530
H      3.261792    2.749687   -0.260464
H      9.745958    0.814462   -3.084521
H     -6.292310    0.654235   -1.626137
H     -1.259076   -2.455960   -0.659602
