39

C     -2.987097    3.591544   -0.903376
C      4.733909   -1.295806    1.350691
C      5.276958   -1.170251    0.090215
C      3.415026   -0.912614    1.526445
C      4.548300   -0.685740   -0.956793
C     -2.165698   -0.536303    1.329430
C     -1.898333   -1.248778   -0.923909
C     -2.935245   -1.654933    1.584423
C     -2.671234   -2.385651   -0.696456
C     -1.304579    1.635065   -1.405037
C     -2.686241    2.172615   -1.154755
C     -1.634842   -0.318552    0.066165
C     -3.181400   -2.574170    0.559757
C      2.646935   -0.413966    0.473219
C     -0.787036    0.863029   -0.245848
C      3.230708   -0.310618   -0.749040
C      0.618510    0.455010   -0.435410
C      1.347918   -0.039422    0.655063
C      1.276868    0.531461   -1.642254
Cl    -4.147348   -3.998868    0.849235
O     -3.591163    1.365528   -1.166417
O      0.723809   -0.126565    1.863246
O      0.744454    0.954834   -2.695081
O      2.529023    0.153929   -1.748989
H     -2.093362    4.156653   -0.536063
H     -3.806166    3.696692   -0.136049
H     -3.350556    4.139729   -1.797020
H      5.303106   -1.677808    2.181448
H      6.299916   -1.454842   -0.099908
H      2.984964   -1.004958    2.493315
H      4.978010   -0.589956   -1.940228
H     -1.961060    0.206166    2.111304
H     -1.488403   -1.086722   -1.907912
H     -3.343236   -1.813741    2.575817
H     -2.825781   -3.060652   -1.533649
H     -1.441641    0.910034   -2.263794
H     -0.695532    2.492468   -1.711397
H     -0.795484    1.490834    0.690688
H      1.133022   -0.454675    2.688486
