41

C     -0.791996   -4.660151   -0.343086
C      4.657115    1.750206    1.161645
C      5.168623    1.309239   -0.036842
C      3.366937    1.394073    1.490609
C      4.440835    0.532363   -0.908103
C     -2.094360    0.574878   -1.126739
C     -2.221110    0.980493    1.185152
C     -2.949149    1.623157   -1.376542
C     -3.091109    2.050253    0.955363
C     -1.389516   -2.134912   -0.142610
C     -0.487588   -3.284313    0.144395
C     -1.713335    0.232508    0.155315
C     -3.461009    2.378324   -0.331607
C      2.585741    0.609572    0.646136
C     -0.803635   -0.898261    0.435264
C      3.127430    0.186286   -0.542991
C      0.540205   -0.551857    0.073093
C      1.290438    0.239379    0.953844
C      1.170774   -0.922870   -1.088348
N     -4.344185    3.459101   -0.607428
O      0.537666   -3.144386    0.791179
O      0.711151    0.644922    2.140955
O      0.501913   -1.629212   -1.877481
O     -4.829443    4.182375    0.454231
O     -4.655470    3.726027   -1.773229
O      2.407743   -0.550944   -1.347678
H     -1.907165   -4.784086   -0.215751
H     -0.327799   -5.443967    0.266292
H     -0.552036   -4.788169   -1.407258
H      5.258917    2.371384    1.843293
H      6.191400    1.587179   -0.305935
H      2.962091    1.733552    2.421830
H      4.808761    0.168856   -1.855067
H     -1.709103    0.001976   -1.956196
H     -1.991439    0.792025    2.228898
H     -3.248239    1.891224   -2.388792
H     -3.491850    2.640907    1.768024
H     -1.694242   -2.072161   -1.191044
H     -2.339106   -2.342424    0.427957
H     -0.819941   -1.053267    1.555870
H      1.185084    1.200720    2.801446
