41

C     -2.065782    0.346011   -0.985238
C     -1.099253   -0.158123    0.070079
C      1.090359    0.118755    1.061442
C      2.187717   -0.176484    0.395571
C      0.132750    0.721379    0.103214
C      2.028037    0.201294   -1.001433
O     -3.198957   -0.450490   -1.042191
O     -0.737733   -1.458938   -0.269587
O      0.796161   -0.063194    2.405015
O      3.326261   -0.764494    0.961583
O      2.929423    0.029496   -1.863975
O      0.767246    0.745259   -1.149919
C      1.649032    0.320692    0.619537
C      1.254765   -0.197194   -0.729614
C     -1.138581   -0.365906   -0.104981
C     -1.830379    0.614579    0.428380
C     -0.167251    0.188919   -1.088190
C     -1.390367    1.877689   -0.139759
O      2.946711   -0.028761    0.916998
O      1.337912   -1.580453   -0.809372
O     -1.317806   -1.709427    0.227017
O     -2.840884    0.501436    1.394933
O     -1.849771    3.027414    0.153940
O     -0.387979    1.562647   -1.046711
Fe     0.000000    0.000000    0.000000
H     -2.343409    1.409018   -0.789374
H     -1.588347    0.335837   -1.982177
H     -1.551394   -0.180965    1.064215
H     -0.115187    1.767632    0.366034
H     -3.995973    0.146814   -1.106489
H     -1.362436   -2.119650    0.128745
H      0.556864    0.721289    3.010090
H      4.243652   -0.536361    0.624395
H      0.988985   -0.032167    1.431935
H      1.583372    1.441433    0.566657
H      1.908663    0.277672   -1.489238
H     -0.459542   -0.207562   -2.075870
H      3.237549   -0.885859    0.494591
H      1.249381   -2.031934    0.050128
H     -1.613250   -2.357343   -0.479400
H     -3.160562   -0.415875    1.679019
