58

C     -2.580316   -2.280486   -1.029273
C      3.464855   -1.829175   -1.748560
C      2.277495   -3.218343   -0.190706
C     -5.783245   -0.675350    0.974129
C     -4.598937   -1.300500    0.636536
C     -5.871641    0.674150    1.048391
C      0.190561   -0.760870    0.492591
C     -3.472288   -0.518780    0.367159
C     -1.059290   -0.467146   -0.338744
C      1.365178   -0.346789   -0.377156
C     -4.735048    1.454752    0.775831
C     -3.551102    0.838511    0.438177
C     -1.213229    1.002446   -0.231366
C      3.457796    1.521019    0.463546
C      2.588861   -0.868149    0.295278
C     -2.334193    1.606847    0.116546
C      3.690843    0.087396    0.410660
C      0.001558    1.747496   -0.525525
C      2.338225    1.946031   -0.076401
C      4.441833    2.384200    1.090796
C     -2.248729   -1.241402    0.045306
C      1.317572    1.083314   -0.722913
N      4.246469    3.649916    1.144393
N      3.059046   -2.038836   -0.398354
O     -4.865854    2.796590    0.860900
O     -2.326608    2.977470    0.168405
O      4.862616   -0.357609    0.464262
O     -0.041489    2.999389   -0.620530
O      2.091280    3.310622   -0.039431
O      5.595090    1.857679    1.635103
O     -1.867008   -2.036387    1.167471
O      1.561668    1.250902   -2.118582
Cl     0.690465    0.000000    0.000000
H     -1.651326   -2.557429   -1.574061
H     -3.282880   -1.812646   -1.724162
H     -3.044094   -3.150464   -0.536771
H      4.499754   -2.180357   -1.947929
H      3.416534   -0.758034   -2.014431
H      2.723103   -2.353554   -2.413256
H      1.362445   -3.140851   -0.840776
H      2.019793   -3.390783    0.855567
H      2.859130   -4.068857   -0.636685
H     -6.685465   -1.263783    1.190943
H     -4.552389   -2.370071    0.583719
H     -6.811013    1.176563    1.317231
H      0.167577   -0.094825    1.402843
H      0.222461   -1.807322    0.794119
H     -0.779189   -0.730156   -1.406296
H      1.191622   -0.926916   -1.335708
H      2.374209   -1.216013    1.351295
H      4.947840    4.270175    1.592106
H     -4.252693    3.517079    0.725792
H     -2.316728    3.519502   -0.687774
H      1.862668    3.753539    0.850839
H      6.469716    2.387723    1.707625
H     -1.502773   -2.895100    0.894208
H      0.759731    0.843669   -2.549461
H     -0.690465    0.000000    0.000000
