32

C     -2.305492   -0.986374   -1.111076
C      0.266905   -1.811166   -1.614854
C     -3.779333    0.667236    0.556336
C     -0.456741    2.015845    1.325421
C     -1.567154    0.075184   -0.426630
C      0.717688   -0.771107   -0.702327
C     -2.308960    0.531591    0.846744
C      0.357246    1.128539    0.721698
C     -0.158756    0.078363   -0.175455
C      2.671483    0.261815    0.401851
C      2.138643   -0.647012   -0.387094
C      1.791794    1.225959    1.017025
C      4.126769    0.272659    0.633668
O      3.042798   -1.570385   -0.966326
O      2.216400    2.119361    1.776815
O      4.893037   -0.563141    0.100958
O      4.677138    1.228649    1.461995
O     -1.821169    1.872586    1.049153
H     -3.416456   -0.639781   -1.171778
H     -2.478002   -1.904868   -0.490712
H     -2.096536   -1.140093   -2.157234
H      1.195594   -2.462976   -1.823992
H     -0.433492   -2.552711   -1.273886
H      0.109335   -1.425789   -2.668901
H     -4.299088   -0.326543    0.632762
H     -4.009385    1.142857   -0.396605
H     -4.211744    1.346639    1.343756
H     -0.028672    2.754474    1.960137
H     -1.716993    0.998102   -1.098435
H     -2.137228   -0.120889    1.696329
H      3.402418   -2.329193   -0.389833
H      5.617953    1.532170    1.330493
