34

C      3.838699   -0.204854    0.181230
C      3.139011   -0.158481   -1.151683
C      2.874309   -0.614685    1.274929
C      1.671580   -0.489648   -1.033813
C      1.749805    0.415474    1.291050
C     -0.472880    2.002090   -0.539010
C     -1.101522    0.632847   -0.683819
C     -3.167936   -0.694778   -0.363165
C     -3.745152   -0.951194    0.792469
C     -2.554614    0.627363   -0.297865
C     -3.540084    0.186855    1.671753
C      0.975900    0.383390   -0.003415
O     -3.201064   -1.614801   -1.412190
O     -4.450978   -2.118697    1.153518
O     -3.971592    0.268962    2.873008
O      0.878764    1.662310   -0.489280
O     -2.813318    1.115242    0.962714
O     -0.309317   -0.123484    0.148120
H      4.689917   -0.946509    0.186729
H      4.251829    0.772426    0.444902
H      3.308609    0.790044   -1.671673
H      3.592996   -0.956837   -1.786900
H      3.378484   -0.598950    2.244801
H      2.409335   -1.584260    1.028143
H      1.199101   -0.265240   -2.009537
H      1.515245   -1.555934   -0.812341
H      1.111753    0.292277    2.182629
H      2.263313    1.413491    1.416470
H     -0.737979    2.452854    0.432937
H     -0.708068    2.662109   -1.397275
H     -1.022974    0.351190   -1.754407
H     -3.098825    1.293849   -1.029843
H     -2.499729   -2.328759   -1.543761
H     -5.452617   -2.115661    1.194891
