27

C     -3.062740    1.475886   -0.624903
C     -2.912486   -0.822538    0.358664
C     -0.421551   -0.788431   -1.036981
C      0.084971    0.359338   -0.152007
C      2.327496   -0.489689    0.069159
C      3.268301    0.271318    0.590330
C      1.076621   -0.250420    0.813241
C      2.707604    1.042592    1.686574
C     -2.139280    0.302469   -0.314789
O      2.455370   -1.377142   -0.998153
O      4.583927    0.283982    0.111325
O      3.368983    1.873346    2.392679
O     -1.609231   -0.218521   -1.493538
O      1.386917    0.696833    1.784877
O     -1.090627    0.755562    0.447620
H     -2.751296    1.960057   -1.566418
H     -4.111714    1.127328   -0.740408
H     -3.002599    2.173991    0.241394
H     -3.420261   -1.440714   -0.438139
H     -2.231322   -1.445164    0.973573
H     -3.683010   -0.409904    1.057495
H     -0.700687   -1.627455   -0.375132
H      0.276852   -1.046633   -1.826165
H      0.528554    1.153112   -0.753639
H      0.683682   -1.201565    1.245833
H      3.371791   -1.736283   -1.267410
H      5.015736   -0.621354   -0.090102
