54

C      5.208096    0.688030   -0.169728
C     -3.164685   -0.408593    1.259903
C     -2.939280    0.051270   -1.045029
C     -1.807886   -0.451508    1.395852
C     -1.539463    0.006920   -0.900394
C      3.265593   -0.571677    1.223756
C      3.806717    0.859987   -0.608732
C     -3.737612   -0.160476    0.052887
C     -0.960405   -0.239562    0.296555
C      2.837163    0.229783    0.091576
C      1.427282    0.358278   -0.247413
C     -5.210867   -0.091804   -0.099261
F     -5.597074    1.109636   -0.650209
F     -5.784354   -0.312168    1.146426
F     -5.605312   -1.098870   -0.939465
N      3.620936   -1.213531    2.136181
N      0.421421   -0.296069    0.515530
O      3.387176    1.604575   -1.659138
O      1.111623    1.053706   -1.219842
C      2.862001    1.292162   -0.522709
C      1.514905    1.105768   -0.295451
C     -3.540363    1.137795   -0.360070
C     -0.682281   -0.533200    1.709302
C      3.728375    0.222423   -0.485283
C     -0.360766   -0.390102    0.211776
C     -2.501605    0.082316   -0.219143
C      1.897122   -1.135232   -0.005929
N      5.002752    0.411652   -0.702246
N      3.214002   -0.990006   -0.222385
N      1.011770   -0.122743   -0.031722
O     -4.790293    0.523738   -0.291903
O      1.414643   -2.429814    0.264955
O     -1.196873    0.599834   -0.274772
S     -2.518281   -0.447809    1.546938
H      5.857076    1.454481   -0.607668
H      5.256044    0.868710    0.955775
H      5.645413   -0.299747   -0.364893
H     -3.839625   -0.584403    2.120862
H     -3.357349    0.253401   -2.018478
H     -1.343162   -0.643492    2.343213
H     -0.957558    0.175395   -1.775779
H      0.827152   -0.877807    1.318368
H      3.172941    1.158754   -2.550856
H      3.292366    2.263202   -0.735981
H      0.845263    1.944150   -0.326173
H     -3.505700    1.849783    0.504412
H     -3.507563    1.675089   -1.328255
H     -0.369250   -1.519806    2.057139
H     -0.302379    0.315360    2.276493
H     -0.620623   -1.369390   -0.262812
H     -2.662831   -0.758852   -0.891206
H      5.608152   -0.427374   -0.661967
H     -4.716733   -0.452910   -0.446730
H      0.884190   -2.846034   -0.506278
