27

C      3.684772   -0.033606   -0.282004
C     -2.450007   -1.009420    0.358400
C     -1.015546   -1.364876    0.554391
C     -2.696259    0.023169   -0.696098
C      1.337813   -0.751525    0.135371
C      2.244668    0.155008   -0.655473
C     -0.067651   -0.657564   -0.359839
C     -1.721946    1.124749   -0.506500
C     -0.452694    0.799285   -0.343979
C      0.591574    1.804039   -0.149239
O     -2.059116    2.467998   -0.489370
O      0.242023    2.892566    0.360138
O      1.896275    1.511419   -0.530138
H      3.908509    0.520645    0.661471
H      4.297851    0.457683   -1.071599
H      3.941980   -1.100256   -0.139547
H     -3.013973   -1.938245    0.050334
H     -2.929968   -0.623199    1.304621
H     -0.852292   -2.469438    0.415103
H     -0.676992   -1.165100    1.602515
H     -2.561573   -0.468843   -1.701261
H     -3.716029    0.414182   -0.611825
H      1.720318   -1.789271    0.000274
H      1.349292   -0.483886    1.209440
H      2.131731   -0.120960   -1.726340
H     -0.166224   -1.011312   -1.405614
H     -2.966537    2.816759   -0.204033
