34

C     -3.557639   -0.737531    0.038058
C     -2.928927    0.088458    1.116600
C     -3.373459   -0.140935   -1.338350
C     -1.878254    0.975303    0.479695
C     -1.936488   -0.028773   -1.740748
C      0.382338   -1.559995   -0.199809
C      1.029251   -0.196523    0.023703
C      3.307383   -0.828578    0.480936
C      4.154997    0.030752    1.007273
C      2.433196   -0.162705   -0.528125
C      3.925334    1.329406    0.404640
C     -1.098776    0.073468   -0.485066
O      3.230655   -2.173984    0.814043
O      5.106081   -0.253650    1.972918
O      4.518021    2.417085    0.626458
O     -0.961293   -1.201863    0.027827
O      2.902363    1.167096   -0.493363
O      0.146468    0.597866   -0.706233
H     -4.658630   -0.759233    0.227603
H     -3.223940   -1.794086    0.047329
H     -3.661070    0.687707    1.693492
H     -2.391285   -0.573452    1.835656
H     -3.891190   -0.823466   -2.056489
H     -3.896024    0.831465   -1.397250
H     -1.210193    1.421854    1.241459
H     -2.376926    1.781210   -0.102324
H     -1.773123    0.903032   -2.317380
H     -1.564250   -0.933232   -2.286352
H      0.462508   -1.839118   -1.253777
H      0.740201   -2.316957    0.510809
H      0.978210    0.022335    1.089873
H      2.520586   -0.611291   -1.516649
H      3.501574   -2.909754    0.166191
H      5.042300   -1.028957    2.617351
