27

C     -2.474436   -0.451828    1.917147
C     -2.877670    0.215542   -0.410490
C     -0.400302    1.046635   -0.538035
C     -0.210720   -0.399707   -0.819859
C      2.037145   -0.594933    0.225384
C      3.032830    0.197460   -0.137228
C      1.219087   -0.828406   -0.958271
C      2.942503    0.534010   -1.553530
C     -1.836114   -0.081840    0.615341
O      1.822148   -1.102596    1.497854
O      4.024755    0.634179    0.752920
O      3.732012    1.263986   -2.201780
O     -1.009661    1.056055    0.730158
O      1.807941   -0.125042   -2.005602
O     -0.897245   -1.028545    0.186043
H     -2.217269   -1.469404    2.258505
H     -3.591272   -0.322038    1.840411
H     -2.149885    0.277428    2.679334
H     -3.835751   -0.261944   -0.107838
H     -3.047340    1.325910   -0.461208
H     -2.651883   -0.124712   -1.421342
H      0.513085    1.634437   -0.468178
H     -1.161356    1.476837   -1.234179
H     -0.718300   -0.664090   -1.788916
H      1.219994   -1.914365   -1.187792
H      2.340002   -1.876794    1.890253
H      4.387702    1.583764    0.700898
