39

C     -3.577476   -3.165599   -0.087864
C     -3.058314    3.199098   -0.163411
C     -2.961232    2.323929   -1.229739
C     -2.439606    2.874417    1.000185
C      5.226552    0.333597    0.877110
C      5.521409    0.162965   -0.447473
C     -2.253677    1.151371   -1.113288
C     -1.734329    1.691640    1.095153
C      3.900620    0.249530    1.301996
C      4.544625   -0.093569   -1.398829
C     -1.535343   -1.676914   -0.286381
C     -2.818701   -1.966345    0.348478
C     -1.614238    0.793151    0.054728
C      2.931213   -0.002049    0.377408
C     -0.851278   -0.436979    0.232193
C      3.239700   -0.169109   -0.933995
C      0.580774   -0.346589   -0.140732
C      1.607093   -0.090551    0.772940
C      1.022562   -0.497602   -1.445602
O     -3.284234   -1.261249    1.218291
O      1.352040    0.085814    2.112943
O      0.219116   -0.730076   -2.371360
O      2.284187   -0.408913   -1.792497
H     -4.558359   -3.264138    0.393005
H     -3.013150   -4.110521    0.145245
H     -3.684271   -3.179830   -1.205092
H     -3.614005    4.125004   -0.247461
H     -3.465840    2.597258   -2.165759
H     -2.515333    3.568507    1.849287
H      5.973046    0.532771    1.624632
H      6.557786    0.229458   -0.774850
H     -2.199187    0.501145   -1.951224
H     -1.275702    1.519719    2.068997
H      3.651688    0.381844    2.344274
H      4.775152   -0.228605   -2.444664
H     -1.684761   -1.542852   -1.386933
H     -0.900496   -2.579767   -0.188680
H     -0.850433   -0.631080    1.352814
H      0.502401    0.061118    2.606154
