56

C      3.024247    0.237087    1.514881
C      1.697703    0.067656    1.258298
C      3.452379   -0.167049   -0.755927
C     -3.281876    1.106021    0.822968
C      3.948484    0.122043    0.497964
C     -2.202876    0.165021    0.387396
C      2.085894   -0.329988   -0.960799
C     -2.286384   -0.175158   -1.091008
C     -0.814437   -0.436185   -1.404337
C     -0.208691   -0.363770   -0.076697
N      1.195473   -0.215212    0.039145
O     -3.308535    2.281815    0.109325
O      5.307565    0.290708    0.735596
O      1.630759   -0.592447   -2.097128
O     -3.031910   -1.328896   -1.202942
O     -0.743795   -1.714090   -1.955976
O     -0.923490    0.706232    0.517016
C      3.280576   -0.136331   -0.462690
C      2.017790    0.388257   -0.657784
C     -3.444312   -0.734698   -0.190880
C     -0.447833    1.216661   -1.439267
C      3.533860   -0.840650    0.698103
C     -0.285490    0.789545    0.026434
C     -2.489812    0.393539    0.132195
C      1.300983   -0.447504    1.353713
N      4.694619   -1.361006    0.948905
N      2.521159   -0.970981    1.573290
N      1.016346    0.245470    0.233712
O     -4.746509   -0.288695   -0.358886
O      0.277312   -0.602069    2.281118
O     -1.226546   -0.164604    0.277947
S     -2.286672    1.347572   -1.429150
H      3.425546    0.466832    2.508106
H      1.010684    0.172500    2.113388
H      4.132879   -0.265769   -1.576529
H     -4.246219    0.575282    0.734429
H     -3.131786    1.299971    1.904967
H     -2.246004   -0.748403    1.014475
H     -2.697689    0.664017   -1.678129
H     -0.520092    0.315879   -2.134792
H     -0.515835   -1.257018    0.512815
H     -2.464485    2.773188    0.180154
H      5.610365    0.500364    1.671239
H     -3.217920   -1.754783   -0.329235
H     -0.679951   -2.395847   -1.258664
H      4.085369   -0.019711   -1.182617
H      1.855728    0.931836   -1.574475
H     -3.128246   -1.151226   -1.183896
H     -3.354872   -1.552318    0.538204
H     -0.222322    0.399352   -2.126139
H      0.024806    2.168187   -1.636520
H     -0.434480    1.728257    0.625379
H     -2.806583    1.026062    0.954264
H      5.452632   -1.232922    0.236688
H     -4.989858    0.347489    0.371291
H     -0.197645   -1.479512    2.449239
