44

C      3.154488   -2.606297    1.145903
C     -0.520518    2.857540   -1.530690
C     -3.458257   -1.220347   -0.415515
C      2.979733   -1.122921    1.345008
C     -3.276811    0.081534    0.259609
C     -2.247397   -2.108588   -0.291858
C     -2.124834    0.712155    0.135428
C     -1.074010    0.081019   -0.674837
C     -0.951183   -1.363272   -0.238155
C      0.267395    0.758339   -0.546332
C      2.206545   -0.495643    0.233238
C     -1.977394    1.993022    0.813322
C      1.435056    2.913756   -0.088985
C      0.116925    2.249961   -0.290564
Cl     2.544710    2.696565   -1.461264
Cl     2.201759    2.458583    1.450719
N      4.289753   -0.476711    1.406892
N      1.113830    0.115373    0.394946
O     -4.301933    0.638413    1.015986
O     -2.361122   -2.879456    0.871618
O     -0.054584   -2.025395   -1.082823
O      2.762774   -0.618200   -1.035086
O     -2.962972    2.587012    1.366762
O     -0.694510    2.529258    0.820130
H      4.221143   -2.811247    0.893689
H      2.964334   -3.116133    2.113007
H      2.553338   -3.012895    0.317252
H      0.292990    3.154795   -2.230761
H     -1.154255    2.115021   -2.032508
H     -1.070744    3.795755   -1.261582
H     -3.786606   -1.101781   -1.480704
H     -4.293906   -1.743165    0.094848
H      2.465585   -0.884348    2.289563
H     -2.303778   -2.829611   -1.137738
H     -1.436342    0.055332   -1.724782
H     -0.480678   -1.350362    0.766891
H      0.752387    0.693566   -1.543654
H      1.243847    4.016059   -0.018435
H      4.561329   -0.196900    0.432495
H      4.284751    0.367097    1.986399
H     -5.083774    1.035377    0.476303
H     -2.630688   -2.337495    1.653544
H     -0.371388   -2.927057   -1.323321
H      2.205012   -0.677708   -1.873956
