37

C     -0.961583   -2.759835    0.820920
C     -1.930117   -1.667430    0.385211
C     -3.801813    2.962609   -0.595818
C     -3.912369    1.725114   -1.191238
C     -2.852555    3.111090    0.392149
C      4.886395   -0.366348    0.378974
C      4.990229   -0.236799   -0.987737
C     -3.095805    0.666938   -0.808268
C     -2.043024    2.061852    0.771597
C      3.622353   -0.407682    0.956236
C      3.857774   -0.151111   -1.755451
C     -2.143977    0.802243    0.176682
C     -1.284400   -0.312029    0.569785
C      2.480944   -0.323476    0.205359
C      2.608087   -0.192957   -1.174853
C      0.072201   -0.273026   -0.042578
C      1.222886   -0.362720    0.762176
C      0.304435   -0.147638   -1.382620
O      1.017433   -0.489861    2.115786
O     -0.652490   -0.062410   -2.164066
O      1.505083   -0.111739   -1.897426
H     -0.758288   -2.650601    1.903763
H     -0.067039   -2.812365    0.194535
H     -1.532778   -3.720940    0.704289
H     -2.828244   -1.786853    1.024944
H     -2.216949   -1.900030   -0.637739
H     -4.448965    3.792043   -0.903362
H     -4.663763    1.611834   -1.971636
H     -2.765330    4.081756    0.860038
H      5.740943   -0.438610    1.036842
H      5.992601   -0.203628   -1.446903
H     -3.234414   -0.271666   -1.307783
H     -1.284950    2.164672    1.554507
H      3.562349   -0.509538    2.029492
H      3.971217   -0.048909   -2.834531
H     -1.124967   -0.212049    1.669645
H      1.768892   -0.559900    2.759204
