40

C     -1.074573   -0.962697    2.397760
C     -3.765640    0.698821   -1.358323
C     -0.105817   -2.532644   -0.957711
C     -1.182692    0.276329    2.153297
C      3.369815    1.391146   -0.903098
C      4.199409    1.024591    0.156562
C     -1.986856   -0.971467   -0.866353
C     -1.874706    1.232857    0.113301
C     -2.286309    0.513151   -1.131901
C     -0.486740   -1.066138   -0.968008
C     -0.615298    0.777671    0.793361
C      2.103218    0.915828   -0.963818
C      0.132304   -0.275197    0.108346
C      1.557915    0.068013   -0.003931
C      2.429243   -0.272631    1.039870
N      3.687763    0.183906    1.119733
O      1.261344    1.256973   -2.009974
O      2.072721   -1.047848    1.994134
O      4.573032   -0.081120    2.133340
H     -1.701371   -0.889565    3.652978
H     -0.989433   -1.958012    2.597749
H     -4.243046    1.312387   -0.571531
H     -4.239918   -0.306725   -1.440181
H     -3.908738    1.225331   -2.318600
H      0.178886   -2.872456   -2.030202
H      0.778856   -2.739890   -0.286728
H     -0.901282   -3.220511   -0.644219
H     -1.640711    1.021056    2.796870
H      3.808718    2.056491   -1.645004
H      5.205335    1.403732    0.208213
H     -2.384645   -1.561128   -1.758281
H     -2.409809   -1.344270    0.061695
H     -1.811282    2.352941   -0.018539
H     -2.755663    1.072094    0.818792
H     -1.706546    0.836515   -2.019752
H     -0.307128   -0.632001   -2.021391
H     -0.018434    1.646567    1.118720
H      0.182403   -1.122657    0.950614
H      1.675882    1.867183   -2.766432
H      5.179795    0.723372    2.468645
