44

C      1.404014   -0.866808    1.239050
C      1.919202   -1.459166   -0.038868
C      0.940532    0.526740    1.193218
C     -5.975170   -0.377684   -0.031647
C     -4.939583    0.436141   -0.495466
C     -2.053355    2.034144   -1.159305
C      3.083752   -0.744853   -0.643805
C     -0.701734    1.886029   -1.755870
C     -4.443654   -1.481246    1.383834
C     -5.734637   -1.349041    0.917550
C     -3.649452    0.286412   -0.013477
C     -2.482581    0.923483   -0.280768
C     -0.157933    0.937465    0.325882
C     -3.396706   -0.677967    0.932620
C     -1.482902    0.339171    0.518260
C      5.418647   -0.121861   -0.070632
Br    -7.156226   -2.468403    1.556570
N      5.338773    0.752574   -1.014851
N      6.640701   -0.430595    0.570887
N      0.106976    0.870048   -1.100307
N      4.186035   -0.762646    0.288530
N     -2.084515   -0.604008    1.216789
H      0.647253   -1.545373    1.639745
H      2.272131   -0.884988    1.977999
H      2.338723   -2.476719    0.275324
H      1.131218   -1.744295   -0.761806
H      1.843902    1.212285    1.065840
H      0.630567    0.786200    2.261183
H     -6.975426   -0.237125   -0.427579
H     -5.094377    1.205988   -1.238195
H     -2.043130    2.958126   -0.509053
H     -2.816708    2.248584   -1.951673
H      3.340473   -1.314117   -1.583125
H      2.841093    0.278206   -0.993756
H     -0.133567    2.836994   -1.694417
H     -0.783349    1.572024   -2.819053
H     -4.262190   -2.245693    2.128807
H     -0.318956    2.053284    0.512131
H      6.220686    1.232906   -1.294591
H      7.534501   -0.149310    0.127098
H      6.686542   -0.931454    1.476198
H     -0.324875   -0.045995   -1.433874
H      4.102891   -1.231051    1.208387
H     -1.617583   -1.226404    1.916944
