51

C      6.150593   -1.473080    0.587341
C      1.543986   -1.675968   -1.343306
C      2.799665    2.089951    1.588893
C     -4.416359   -2.633879    0.904983
C     -3.916626   -2.032949    2.049117
C     -4.323655   -1.967057   -0.281047
C     -3.336513   -0.782826    1.986124
C      3.824901   -1.500089   -0.338455
C      4.425106    0.290896    1.057225
C     -3.543575    0.163475   -1.500007
C     -1.719752    2.991564   -1.334964
C     -0.263009    0.377935    0.567289
C      4.786745   -0.885791    0.435501
C      2.559889   -0.970590   -0.489180
C      3.158630    0.816598    0.903464
C     -3.742203   -0.719806   -0.329741
C     -3.234072   -0.093428    0.795062
C     -3.451399    1.526720   -0.850891
C     -0.747857    2.037754   -0.745742
C      2.192176    0.206036    0.130130
C     -2.677011    1.240824    0.399801
N      0.547895    1.766548   -0.821115
N     -1.259872    1.144590    0.145004
N      0.884310    0.751062   -0.027275
O     -2.883117    2.399891   -1.713187
Cl     0.000000    0.000000    0.000000
O     -0.003056    0.370668   -0.000000
H      6.850106   -1.051070   -0.171646
H      6.589254   -1.218481    1.579542
H      6.052035   -2.556678    0.422840
H      2.117484   -2.229293   -2.142205
H      0.917954   -0.931038   -1.836417
H      0.968464   -2.413003   -0.750886
H      1.709033    2.200530    1.735521
H      3.344901    2.230495    2.534645
H      3.091981    2.909682    0.870142
H     -4.881904   -3.625238    0.925663
H     -4.006192   -2.588513    2.971670
H     -4.716686   -2.434765   -1.193274
H     -2.960900   -0.351763    2.897961
H      4.106208   -2.430102   -0.831610
H      5.194189    0.771962    1.669512
H     -4.381233    0.102366   -2.224171
H     -2.563378   -0.109713   -1.961979
H     -1.228383    3.402924   -2.261845
H     -1.910266    3.858672   -0.649742
H     -0.334915   -0.444696    1.292450
H     -4.464776    1.865439   -0.569077
H     -2.851857    1.973904    1.211606
H      0.820325   -0.184314    0.000000
H     -0.817269   -0.186353   -0.000000
