34

C     -3.169234    1.160020   -0.599785
C      4.423236    0.607152    0.177746
C      4.190425   -0.715549   -0.105736
C      3.357290    1.468092    0.414946
C      2.890058   -1.154205   -0.146820
C      2.052960    0.993166    0.365987
C      0.435330   -0.869106    0.022658
C     -0.642218   -0.172106    0.223984
C     -3.180793    0.009830    0.374187
C      1.785120   -0.328199    0.084315
C     -1.957843   -0.792308    0.143253
N     -4.322571   -0.834773    0.236095
O     -2.021012   -2.016867   -0.125796
C      0.628725    0.013197    0.364045
C     -0.680943   -0.164521   -0.268643
O      1.770205   -0.551826   -0.154877
O      0.754967    0.698200    1.418007
O     -1.806158    0.408955    0.267311
O     -0.744140   -0.855133   -1.313110
H     -2.110337    1.408800   -0.817918
H     -3.676613    0.906274   -1.555059
H     -3.648756    2.077159   -0.152476
H      5.427022    0.975689    0.216099
H      5.045017   -1.341488   -0.281651
H      3.526299    2.503470    0.637417
H      2.689721   -2.187611   -0.367502
H      1.253565    1.693341    0.555981
H      0.318372   -1.933343   -0.208497
H     -0.573305    0.885081    0.455647
H     -3.168955    0.427125    1.405547
H     -4.656376   -1.261228    1.116861
H     -4.266402   -1.508417   -0.557276
H      2.681326   -0.142715   -0.058813
H     -2.603982    0.593843   -0.361504
