20

C     -2.215635    0.521908    0.512564
C     -1.092943   -0.499670    0.469384
C      1.385393   -0.585659    0.330191
C      2.079937   -0.227534   -0.725513
C      0.200912    0.280566    0.394168
C      1.416154    0.874327   -1.414322
O     -2.190635    1.299825   -0.643261
O     -1.290861   -1.290498   -0.641451
O      1.778359   -1.622053    1.189561
O      3.291379   -0.829343   -1.125039
O      1.829939    1.452660   -2.472358
O      0.283168    1.133472   -0.683624
H     -2.013297    1.181117    1.397141
H     -3.202235    0.062157    0.699895
H     -1.159499   -1.086260    1.390974
H      0.324360    0.902460    1.319107
H     -2.664171    2.168478   -0.505818
H     -2.200392   -1.173928   -1.034265
H      1.317221   -1.809988    2.065664
H      4.122849   -0.752037   -0.523000
