39

C     -4.737110   -0.542782   -0.232953
C      4.762370   -1.418484    0.028134
C      3.518579   -1.615088    0.604146
C     -3.063794    1.244832   -0.538592
C     -2.171911   -0.915133    0.058566
C     -1.582915    1.115199    1.333124
C     -0.677707    1.663516   -0.969918
C      3.910269    0.382961   -1.293284
C     -3.316435   -0.023918   -0.248238
C     -1.776244    1.820206    0.009602
C     -1.181621   -0.344546    1.019025
C      4.948192   -0.432368   -0.905900
C      2.473222   -0.819384    0.236564
C      2.659726    0.176457   -0.706321
C      0.394022    0.770020   -0.500978
C      0.173124   -0.198249    0.429551
C      1.233764   -1.013943    0.809753
Cl     6.514188   -0.162021   -1.651354
N      0.962949   -1.900347    1.683089
N      1.627550    0.952753   -1.061292
Cl     0.684485    0.000000    0.000000
H     -5.257465   -0.085143   -1.102914
H     -5.229684   -0.162223    0.692870
H     -4.734410   -1.631833   -0.232793
H      5.591053   -2.027896    0.300577
H      3.380289   -2.399189    1.343778
H     -3.734928    1.819717   -1.124336
H     -2.591692   -1.865439    0.491297
H     -1.682299   -1.233861   -0.899468
H     -2.549374    1.074063    1.834203
H     -0.809901    1.606561    1.923344
H     -0.268051    2.660181   -1.275838
H     -1.036905    1.218227   -1.948726
H      4.018543    1.165130   -2.021498
H     -1.952090    2.899000    0.209467
H     -1.162953   -0.891469    1.984429
H      1.568168   -2.593473    2.101872
H      1.781479    1.707966   -1.780564
H     -0.684485    0.000000    0.000000
