95

C      4.099765   -1.416641    0.822862
C      7.681918   -1.772699    2.263019
C      4.726872    2.149878    2.126874
C      9.987707   -1.782224    0.340784
C     -0.409187    2.865725    0.282961
C     -1.555668   -0.670728   -2.105228
C     -0.923307   -4.637319   -0.962899
C     -1.867724   -5.561802   -1.373535
C     -1.351850   -3.485306   -0.381806
C     -3.205072   -5.268594   -1.172018
C     -6.718615    2.133597    0.749209
C     -7.342466    2.353258   -1.512225
C     -8.014535    1.715245    1.047710
C     -8.614663    1.944565   -1.230040
C      6.396093   -0.753216    0.523167
C      4.762865    0.927833   -0.089754
C      7.684032   -2.755134   -0.052415
C     -2.740185   -0.870205    0.956832
C     -4.825932    4.382720   -0.547057
C      5.103657   -0.408634    0.427999
C      6.907320   -2.063634    0.995900
C      4.051739    1.817649    0.841824
C      8.882894   -2.102737   -0.609526
C      0.346901    1.534407    0.420452
C     -6.356176    2.461482   -0.539763
C     -8.968925    1.618889    0.058341
C     -2.669009   -3.139298   -0.155761
C     -3.324303   -2.068689    0.414577
C     -3.603042   -4.084100   -0.575902
C     -4.986349    2.899967   -0.861441
C     -2.420334    0.291974    0.097300
C     -5.808466    5.115939   -1.382251
C     -4.676605   -2.404971    0.322966
C      2.643973    1.421785    1.069696
C     -3.587894    0.924570   -0.581604
C     -0.062956    0.692126   -0.758188
Br    -6.169962   -1.389474    0.928222
N      1.739889    1.867704    0.277168
N     -4.801294   -3.600378   -0.267755
N     -3.932057    2.119249   -0.336668
N     -1.347051    0.104347   -0.867676
O      8.571197   -1.006107   -1.443131
O    -10.278575    1.196406    0.357774
O     -7.046945    5.067683   -1.121119
O     -5.399092    5.871575   -2.467544
O      2.214324    0.590996    2.092129
O     -4.321550    0.194922   -1.504878
O      0.810919    0.535215   -1.656488
H      3.128435   -1.145905    0.323552
H      3.911342   -1.504124    1.893210
H      4.333052   -2.448444    0.437193
H      8.087755   -2.705399    2.701302
H      6.885029   -1.464296    3.009933
H      8.359390   -0.927858    2.210345
H      5.077392    1.262525    2.695354
H      3.991015    2.664838    2.780396
H      5.554729    2.877643    1.946104
H     11.003686   -2.023148   -0.104870
H      9.938424   -2.438886    1.230487
H     10.075868   -0.697738    0.581701
H      0.280296    3.696980    0.008978
H     -1.146164    2.822263   -0.552086
H     -0.920861    3.156853    1.204749
H     -1.467857    0.089697   -2.945632
H     -2.519309   -1.156705   -2.161460
H     -0.737005   -1.394830   -2.215464
H      0.127915   -4.880356   -1.126871
H     -1.540464   -6.474796   -1.834200
H     -0.593096   -2.761822   -0.061349
H     -3.950950   -5.979841   -1.486772
H     -5.995896    2.198200    1.536775
H     -7.110175    2.597409   -2.529892
H     -8.270141    1.466874    2.053158
H     -9.389216    1.860384   -2.003166
H      7.120607    0.026538    0.217583
H      5.690866    1.416964   -0.526242
H      4.125767    0.752431   -1.018554
H      6.988533   -2.958702   -0.906398
H      7.990988   -3.785684    0.288190
H     -1.816894   -1.074699    1.574836
H     -3.453314   -0.467150    1.760793
H     -5.067283    4.591618    0.516720
H     -3.822076    4.703913   -0.841010
H      6.058020   -2.690204    1.304690
H      4.032725    2.846903    0.285494
H      9.321575   -2.849356   -1.343998
H      0.142505    1.059865    1.378635
H     -4.898774    2.849275   -1.988542
H     -1.993817    1.061458    0.824870
H     -5.698206   -4.103397   -0.469642
H      9.361517   -0.476891   -1.659033
H    -10.990143    1.883565    0.613371
H     -5.986767    6.608344   -2.853965
H      1.615578   -0.203395    1.911781
H     -5.116880    0.561265   -2.001381
