29

C     -1.514087   -1.633184   -0.416367
C     -2.956988   -1.370051   -0.042375
C     -0.011585    2.323001   -0.180329
C     -1.471834    2.054411   -0.080919
C      2.130061    1.272702    0.367341
C      1.198035   -1.227855   -0.239054
C      0.829435    1.115399   -0.064212
C      0.369249   -0.137231   -0.365852
C     -1.047036   -0.273547   -0.831683
C      2.995088    0.192774    0.506956
C      2.494721   -1.051428    0.193632
C     -2.836601   -0.062293    0.653349
N     -1.821663    0.662135   -0.040833
O      4.290239    0.318425    0.932833
O      3.328108   -2.165796    0.318939
O     -3.453703    0.395005    1.647120
H     -1.407175   -2.400131   -1.199930
H     -0.958106   -1.975931    0.480378
H     -3.367590   -2.160732    0.615000
H     -3.560938   -1.205172   -0.950848
H      0.240775    2.820146   -1.150870
H      0.316542    3.051305    0.612827
H     -1.876797    2.536068    0.839078
H     -1.993324    2.578609   -0.935093
H      2.548190    2.242036    0.620406
H      0.824323   -2.215283   -0.480463
H     -1.145512   -0.086310   -1.919022
H      4.868035   -0.504117    1.013480
H      2.990137   -3.092960    0.096514
