95

C      5.910059   -0.651188   -1.261444
C      8.366811    2.208854   -0.065307
C      3.067696    0.175555   -1.915161
C     10.895572    1.291675    1.288020
C      0.682714   -2.211548   -1.130503
C     -3.254324   -1.351945    0.797587
C     -4.381265   -5.032171   -0.771126
C     -5.716390   -5.193452   -1.131893
C     -3.727535   -3.902147   -1.206025
C     -6.374020   -4.262942   -1.897448
C     -5.078999    2.998524    2.488774
C     -5.748775    0.798447    1.972662
C     -5.582157    2.848000    3.766629
C     -6.247024    0.658087    3.250074
C      6.456178    0.812569    0.595910
C      4.135483    0.219280    0.362648
C      8.578391    0.333546    1.621841
C     -2.556392   -1.203439   -2.393469
C     -5.742733    2.232139   -0.793043
C      5.534606    0.167311   -0.097539
C      7.915670    0.847109    0.381521
C      3.189049    0.844562   -0.593093
C     10.021771    0.112798    1.569046
C      0.546482   -1.341603    0.132691
C     -5.151448    1.967582    1.554108
C     -6.176482    1.675276    4.175800
C     -4.346805   -2.952308   -1.966915
C     -3.869500   -1.753008   -2.521132
C     -5.667765   -3.144693   -2.305767
C     -4.590181    2.156703    0.182401
C     -2.153580   -0.384221   -1.195292
C     -6.697833    3.327830   -0.511742
C     -4.975421   -1.251273   -3.202766
C      1.798365    0.843557    0.086334
C     -2.959859    0.857164   -1.079093
C     -0.826151   -1.439200    0.676204
Br    -5.062185    0.355022   -4.207230
N      1.212367   -0.180174    0.107807
N     -6.032342   -2.106774   -3.052610
N     -3.740245    1.016161   -0.083924
N     -2.015329   -1.074765    0.037569
O     10.429441   -0.474176    2.806617
O     -6.691160    1.493708    5.463273
O     -7.105703    3.527668    0.694906
O     -7.206883    4.191084   -1.469059
O      1.383939    2.048259    0.604719
O     -2.896870    1.869073   -2.027998
O     -0.988493   -1.916531    1.876400
H      5.775458   -0.136401   -2.241008
H      6.954886   -1.006475   -1.225336
H      5.300091   -1.602998   -1.278365
H      8.336036    2.907206    0.792396
H      7.546598    2.594850   -0.760587
H      9.329512    2.192798   -0.616809
H      3.287333   -0.885052   -1.967427
H      1.981911    0.305094   -2.275226
H      3.648650    0.733795   -2.698850
H     11.822829    1.229264    1.942307
H     10.452140    2.272687    1.491890
H     11.301278    1.304277    0.237337
H      1.657174   -2.705935   -1.097523
H     -0.141680   -2.946815   -1.078667
H      0.582990   -1.618891   -2.058713
H     -3.203217   -2.367445    1.254168
H     -3.281132   -0.659584    1.693497
H     -4.160003   -1.253610    0.227245
H     -3.880226   -5.760099   -0.176166
H     -6.235227   -6.097625   -0.788523
H     -2.681594   -3.724292   -0.951792
H     -7.405835   -4.428677   -2.154562
H     -4.625050    3.932899    2.206449
H     -5.841543   -0.023166    1.302121
H     -5.534816    3.644638    4.513288
H     -6.707828   -0.271146    3.537308
H      6.093719    1.401882    1.447555
H      3.767575   -0.833989    0.552954
H      4.053885    0.737019    1.363426
H      8.057649   -0.590064    2.008534
H      8.379941    1.133893    2.409263
H     -2.347638   -0.495445   -3.278369
H     -1.728740   -1.967690   -2.549969
H     -5.339839    2.283460   -1.821304
H     -6.294077    1.286971   -0.733448
H      8.158435    0.123172   -0.456467
H      3.498308    1.890995   -0.782555
H     10.227239   -0.712695    0.815929
H      1.137766   -2.035242    0.893156
H     -3.956805    3.055573    0.179508
H     -1.099161   -0.051872   -1.507059
H     -6.985706   -1.984817   -3.456638
H     10.260032    0.180986    3.549345
H     -6.080532    1.116866    6.193670
H     -8.075362    4.693979   -1.418399
H      0.428977    2.219376    0.923154
H     -2.995145    2.868361   -1.774699
