98

C      5.335147    1.109893   -1.980313
C      8.142525    1.151229   -1.888721
C      4.903582   -1.904191   -0.288969
C      8.625844    1.808999    2.396563
C      0.548545   -3.740880    0.156884
C     -2.924006   -1.777119   -2.113275
C     -6.402442    4.477925    2.505338
C     -6.461544   -4.288360   -1.055302
C     -6.368477   -5.653594   -0.957707
C     -5.545940   -3.506792   -0.386986
C     -5.381920   -6.233635   -0.208774
C     -4.649160    2.844280   -2.357193
C     -3.901541    3.840750   -0.346209
C     -4.631892    4.079077   -2.994818
C     -3.877921    5.084850   -0.967478
C      6.577448    0.979456    0.106302
C      4.195230    0.381018    0.229948
C      8.372733    2.712352    0.083725
C     -3.194509   -2.151242    1.424240
C     -5.546635    1.292536    0.544779
C      5.440812    0.836755   -0.529246
C      7.850680    1.396210   -0.454575
C      3.767691   -0.907873   -0.417843
C      8.034675    2.871991    1.513280
C      0.243993   -2.215840    0.044673
C     -4.282325    2.704942   -1.016132
C     -4.236598    5.219183   -2.277769
C     -4.546967   -4.077310    0.370397
C     -3.506392   -3.555998    1.143446
C     -4.453296   -5.445485    0.469098
C     -4.308300    1.362927   -0.336649
C     -2.870807   -1.266413    0.290079
C     -5.574240    2.338110    1.576587
C     -2.843427   -4.676822    1.673226
C      2.541022   -1.480793    0.183008
C     -2.511383    0.117615    0.761699
C     -0.822367   -2.083739   -0.958770
Br    -1.394420   -4.554041    2.918552
N      1.485076   -1.650147   -0.508522
N     -3.417884   -5.789620    1.260646
N     -3.154654    1.145109    0.458214
N     -2.144217   -1.716736   -0.815860
O      8.462500    4.123108    1.978953
O     -4.234471    6.429369   -2.950921
O     -4.832194    2.232405    2.611195
O      2.546271   -1.835895    1.514030
O     -1.390588    0.319698    1.599510
O     -0.417732   -2.363757   -2.174454
O     -6.366743    3.467859    1.519147
H      5.809145    0.409512   -2.647690
H      4.221509    1.021844   -2.237922
H      5.510714    2.200675   -2.199073
H      9.279146    1.255942   -2.079471
H      8.007061    0.053338   -2.080211
H      7.714954    1.817348   -2.625542
H      4.493331   -2.881452   -0.619184
H      5.752642   -1.661599   -0.961166
H      5.191974   -1.997005    0.771515
H      7.859412    1.314608    3.058322
H      9.328789    2.282006    3.157592
H      9.236795    1.060517    1.888874
H     -0.386282   -4.288051    0.062953
H      0.993889   -3.898066    1.136587
H      1.310654   -4.030940   -0.598267
H     -3.971070   -1.557418   -1.948329
H     -2.462336   -1.011340   -2.775938
H     -2.749946   -2.759020   -2.574614
H     -6.594016    5.473592    2.038482
H     -7.279267    4.218203    3.166606
H     -5.457475    4.544694    3.073153
H     -7.262926   -3.826701   -1.663840
H     -7.104016   -6.267809   -1.495264
H     -5.632571   -2.438201   -0.455349
H     -5.291729   -7.325188   -0.117747
H     -4.944085    1.953684   -2.867990
H     -3.611965    3.778259    0.691502
H     -4.914577    4.193421   -4.024987
H     -3.568524    5.978293   -0.409533
H      6.505572    0.734974    1.209152
H      4.454264    0.279082    1.283254
H      3.402772    1.158349    0.098311
H      9.498476    2.682635   -0.011292
H      8.077314    3.568711   -0.554514
H     -2.314325   -2.132733    2.118125
H     -4.047113   -1.676775    2.029796
H     -5.574246    0.281810    0.990898
H     -6.478505    1.344823   -0.090415
H      8.604876    0.643892    0.067433
H      3.602360   -0.744919   -1.487487
H      6.910779    2.799342    1.649127
H      0.038160   -1.868997    1.037338
H     -4.470699    0.627228   -1.152390
H     -3.968303   -1.034643   -0.130404
H     -3.146803   -6.775251    1.486079
H      8.981201    4.555411    1.260644
H     -5.092315    6.990593   -2.935280
H      1.743005   -1.748410    2.119044
H     -1.084482    1.250369    1.840739
