132

C      0.250963    0.964443   -1.424903
C      0.227835   -0.460051   -1.206326
C     -0.397206    1.978110   -0.615084
C      0.668299   -1.162034   -0.020770
C     -1.791480    2.209530   -0.372417
C      2.022025   -1.227006    0.502767
C    -11.813692    3.337643    0.435490
C     11.991667    2.764100    1.340295
C    -11.718418    3.251562   -1.058498
C     11.727642    1.842508    2.512807
C     -2.732428    1.362127    0.336487
C      2.826481   -0.143627    1.041917
C    -11.875543    1.941990    1.075616
C     11.973586    2.004583    0.016101
C    -15.944575   -3.095974    1.076393
C    -14.729216   -3.945193    0.954661
C     16.094093   -1.783834    0.117102
C     15.629708   -0.542260   -0.593720
C    -10.702311    2.190760   -1.470922
C     10.549670    0.899017    2.200308
C    -11.421925   -0.161326   -2.030335
C     11.245215   -1.364646    1.548987
C     -3.040431    0.008186   -0.198147
C      3.231615    1.023306    0.208005
C    -12.838989   -0.668138   -1.830258
C     11.807216   -2.256550    0.441478
C    -11.605348   -0.796579    1.449448
C     11.428805   -0.679212   -1.700427
C     -9.205241   -1.071526    1.654935
C      9.007464   -0.376902   -2.085072
C     -8.644713    0.421609   -0.576419
C      8.501218    0.199175    0.551552
C    -14.304911   -1.817448   -0.410693
C     13.788323   -2.388880   -0.904758
C    -14.538798   -2.478126    0.933015
C     15.185978   -1.856636   -1.056568
C    -10.263236   -0.526848    0.934886
C     10.082099   -0.364033   -1.187562
C    -12.245106    0.997463   -0.040706
C     12.140292    0.569389    0.342438
C     -9.916843    0.203800   -0.162125
C      9.757915   -0.068847    0.108309
C     -7.545086   -0.125561    0.146347
C      7.397535    0.193058   -0.343328
C    -12.694962   -0.315378    0.513339
C     12.538424   -0.356613   -0.746025
C     -7.951932   -0.851954    1.241755
C      7.725504   -0.099780   -1.628319
C     -5.305501   -0.490138    0.556921
C      5.208186    0.437737   -0.961936
C    -11.042502    0.821207   -0.950990
C     10.924932   -0.002313    1.059181
N     -4.081816   -0.588730    0.665575
N      3.959028    0.658713   -0.970460
N     -6.295480    0.017771   -0.136651
N      6.155395    0.454739   -0.030905
N    -12.982263   -1.263189   -0.516564
N     13.023780   -1.573869   -0.025088
S     -6.327395   -1.371454    1.914053
S      6.143067    0.004965   -2.445889
H     -0.290999    1.065637   -2.502773
H      1.274972    1.292244   -1.801153
H      0.967389   -0.877304   -2.050065
H     -0.719606   -0.954991   -1.614892
H      0.121290    2.038701    0.431659
H      0.020016    2.995339   -1.025980
H     -0.030912   -0.925710    0.883851
H      0.354239   -2.268616   -0.173939
H     -1.866042    3.265868    0.159506
H     -2.294509    2.545116   -1.386279
H      2.656032   -1.686419   -0.357683
H      2.109851   -2.109820    1.262193
H    -10.909400    3.873880    0.802806
H    -12.709295    3.915477    0.741114
H     11.303491    3.605768    1.330096
H     13.025699    3.148183    1.449962
H    -12.671103    3.178835   -1.588557
H    -11.267959    4.231621   -1.394527
H     12.597854    1.341989    2.904660
H     11.317799    2.493010    3.337425
H     -2.400473    1.201573    1.437121
H     -3.721364    1.926105    0.541302
H      3.790411   -0.583185    1.506565
H      2.349189    0.293847    1.979879
H    -10.907327    1.723365    1.522610
H    -12.651632    1.884906    1.866065
H     12.791545    2.324930   -0.660845
H     11.023894    2.276184   -0.468973
H    -16.625210   -3.053056    0.217396
H    -16.441409   -2.981532    2.061704
H    -14.335425   -4.512132    1.830553
H    -14.594107   -4.475924   -0.008439
H     17.180094   -1.965583    0.008850
H     15.729879   -2.040446    1.127429
H     15.112271    0.147429    0.082871
H     16.376202    0.017284   -1.235851
H    -10.812734    2.114834   -2.592409
H     -9.727306    2.580725   -1.164869
H     10.273842    0.382622    3.122957
H      9.737053    1.645579    1.917266
H    -10.784417   -1.081041   -2.013495
H    -11.347859    0.236856   -3.043003
H     11.856552   -1.398023    2.453753
H     10.267403   -1.855561    1.825316
H     -3.319693    0.027301   -1.238791
H     -2.157060   -0.649567    0.044690
H      4.044023    1.552055    0.865497
H      2.434235    1.756624    0.092691
H    -13.607274    0.080269   -2.068180
H    -12.976313   -1.494480   -2.557261
H     11.083064   -2.460574   -0.329279
H     12.171592   -3.176484    0.950270
H    -11.786368   -1.869546    1.692657
H    -11.732273   -0.232179    2.403711
H     11.560100   -0.010528   -2.615523
H     11.527320   -1.696235   -2.107499
H     -9.370100   -1.668195    2.541750
H      9.151043   -0.603123   -3.147570
H     -8.507750    1.011183   -1.463337
H      8.355560    0.395352    1.602619
H    -14.549840   -2.497731   -1.239273
H    -15.029371   -0.959096   -0.483636
H     13.341936   -2.564356   -1.905800
H     13.915096   -3.386991   -0.374913
H    -14.213108   -1.916221    1.825709
H     15.688058   -2.238667   -1.981479
H    -13.044907    1.417721   -0.642723
H     12.967257    0.523693    1.123527
H    -13.594855   -0.104757    1.144216
H     13.393767   -0.006047   -1.346904
H     -5.931112    0.611672   -1.030237
H      5.802469    0.697504    0.981436
