30

C     -1.983094    0.028233   -1.196424
C     -2.076273   -1.145976    0.814994
C     -2.679242    1.106665    0.752835
C     -0.382401    0.450640    0.558945
C      0.614177    0.248081   -0.501256
C      2.078852    0.588269   -0.097967
C      1.691877   -0.795788   -0.439922
C      2.835039    1.457381   -0.993981
C      1.776686   -1.809170    0.620901
N     -1.738105    0.139621    0.216610
O      2.709303    1.289740   -2.243826
O      3.691474    2.465400   -0.575353
O      1.434416   -1.642394    1.809225
O      2.276172   -3.105790    0.354704
H     -1.862966    1.015650   -1.696491
H     -3.050359   -0.252422   -1.321615
H     -1.390649   -0.770201   -1.682888
H     -1.814666   -1.104311    1.895171
H     -1.534422   -1.945976    0.270460
H     -3.171869   -1.287252    0.717070
H     -3.150901    0.793096    1.683354
H     -2.101975    2.040690    0.923078
H     -3.460755    1.375125   -0.003987
H     -0.397329    1.564951    0.799838
H     -0.070671   -0.036137    1.491694
H      0.397436    0.571768   -1.553691
H      2.246351    0.802186    0.988209
H      2.104932   -1.163345   -1.433147
H      4.371290    2.817167   -1.235012
H      2.637674   -3.695900    1.078474
