49

C     -3.507096    0.616895   -1.377225
C     -5.415487   -1.552151    0.897680
C      7.884846    1.511376    1.147024
C      7.651584    0.226912    1.556110
C      7.083299    1.979832    0.112690
C     -1.179688   -2.242467    0.213502
C      0.670242    0.723909   -2.133024
C     -0.565619    0.972096   -1.572154
C     -2.697330   -2.061321    0.071072
C     -3.855997    1.981122    1.103679
C     -2.501424    1.632228    0.601903
C      0.672799   -1.427130   -1.163441
C     -0.562713   -1.169129   -0.607204
C      1.311213   -0.480583   -1.938314
C     -1.216408    0.030638   -0.792862
C      6.703906   -0.600032    1.023291
C      6.141662    1.165913   -0.420601
C     -3.026332   -0.738754    0.671739
C     -4.804796    0.860556    1.169272
C      5.879929   -0.147971   -0.025256
C      4.218444   -0.379628   -1.568180
C     -2.524848    0.371041   -0.234508
Br     6.543198   -2.366684    1.745749
N      4.935879   -0.770817   -0.656446
N     -4.415853   -0.503028    0.909047
O     -5.990640    1.095078    1.460530
S      2.908440   -0.846750   -2.642548
S      4.916944    1.371279   -1.745880
H     -4.331659   -0.098695   -1.375733
H     -3.945028    1.632691   -1.338354
H     -2.985357    0.528263   -2.351758
H     -5.159201   -2.349095    0.140273
H     -6.405231   -1.162419    0.563159
H     -5.500889   -2.067415    1.867801
H      8.620258    2.150608    1.561759
H      8.277701   -0.159422    2.374247
H      7.181423    2.980210   -0.289250
H     -0.861934   -3.245375   -0.067139
H     -0.958797   -1.990578    1.278530
H      1.181079    1.469948   -2.747961
H     -1.048968    1.932350   -1.742610
H     -3.235300   -2.906340    0.529120
H     -2.879625   -2.058453   -1.039615
H     -3.749578    2.392661    2.149519
H     -4.305096    2.826794    0.519108
H     -1.752222    1.479624    1.430189
H     -2.059538    2.429109   -0.042150
H      1.151172   -2.399375   -0.985100
H     -2.491364   -0.637521    1.658702
