61

C      7.508036    1.471155   -0.697700
C      5.669045   -0.009868   -1.244112
C      7.907542   -0.908482   -0.959242
C     -4.727177   -1.462388    0.524962
C     -6.696819    2.186811   -0.139682
C     -0.352259   -1.146234   -0.699113
C     -3.087922    0.868252    1.793992
C      2.104283    0.652036    1.352363
C     -1.704384   -1.189185   -1.020572
C     -4.422412    1.209316    1.243018
C      3.450041    0.657524    1.638211
C     -5.997730   -1.206055   -1.873976
C     -4.487393   -0.930578   -1.890231
C     -0.841325    0.168663    1.175087
C      2.384224   -1.488544    0.408633
C      0.114752   -0.463944    0.410516
C     -2.196987    0.141128    0.875985
C      1.538140   -0.436466    0.723283
C     -2.633678   -0.555569   -0.249336
C     -4.585700    0.856782   -0.216353
C      4.298296   -0.412365    1.315552
C     -6.681600   -0.076113   -1.201688
C      6.689421   -0.102997    1.032872
C      6.893361    0.101501   -0.399122
C     -4.091137   -0.544750   -0.508182
N      3.695285   -1.447370    0.703904
N      5.633281   -0.303027    1.658058
N     -5.992067    0.961520   -0.533385
O     -7.937158   -0.019271   -1.214985
O      7.872604   -0.067921    1.829214
H      8.626367    1.420813   -0.612152
H      7.167028    2.240855   -0.004768
H      7.298038    1.772819   -1.743055
H      4.802038    0.559580   -0.887936
H      5.950141    0.375555   -2.267527
H      5.464163   -1.091866   -1.395718
H      7.419228   -1.912860   -0.899347
H      8.790363   -0.943283   -0.283992
H      8.139236   -0.641182   -1.989878
H     -5.667349   -1.002970    0.934068
H     -4.056503   -1.610482    1.395485
H     -4.920933   -2.480223    0.102817
H     -7.774561    2.106355   -0.352362
H     -6.283986    3.012794   -0.756386
H     -6.572010    2.399829    0.939792
H      0.348190   -1.661247   -1.336784
H     -3.235916    0.224430    2.701292
H     -2.533978    1.766456    2.186548
H      1.465421    1.495311    1.613063
H     -2.056284   -1.729971   -1.897089
H     -5.261647    0.785729    1.849435
H     -4.551007    2.321111    1.317232
H      3.866678    1.523484    2.131779
H     -6.386312   -1.221171   -2.931128
H     -6.220382   -2.183319   -1.445845
H     -4.037420   -1.840997   -2.285681
H     -4.362420   -0.035497   -2.542382
H     -0.477145    0.710024    2.054649
H      1.978917   -2.363940   -0.086572
H     -4.062295    1.622016   -0.822601
H      7.821778   -0.121717    2.833521
