131

C     -0.116369   -1.107538   -0.985617
C     -1.587927   -1.242588   -0.837334
C      0.517034   -0.602700    0.267250
C     -2.220715    0.086062   -0.516443
C      2.000146   -0.471591    0.061720
C     -1.896214    1.056939   -1.603546
C     10.366633   -3.767722    0.865281
C     10.011502   -3.154959    2.209386
C     -8.043242    2.019970    2.127167
C     -9.389704    2.704922    2.071569
C     15.115396    2.517483   -0.146969
C    -13.986378   -1.749719    1.397099
C     14.119543    3.610018    0.201985
C     14.551458    1.708581    1.013082
C    -14.422935   -1.004469    0.140565
C    -13.493854   -2.906207    0.542680
C     10.542562   -2.659860   -0.163910
C      2.598884   -1.786608   -0.273559
C     -2.537782    2.372842   -1.340283
C      7.903197    0.208790   -1.972339
C     -8.211842    1.345155   -2.841609
C      6.553625    0.103467   -1.707526
C     -6.836537    1.419699   -2.872566
C      9.012208   -2.047702    2.115290
C     -8.155068    0.533839    1.917766
C     -9.968153    2.393368    0.688699
C      9.703798    0.348316    2.048617
C     -9.095088   -1.274965    0.573377
C     10.599402    1.349820    1.422912
C    -10.551857   -1.716486    0.403178
C     10.275858    0.054327   -1.449179
C    -10.376035    0.901627   -1.788269
C      7.080585   -0.652206    0.460893
C     -6.777629    0.697731   -0.609100
C     12.330553    1.890823   -0.156755
C    -12.303096   -1.449282   -1.203316
C     13.259831    2.523377    0.855222
C    -13.559587   -2.022603   -0.634479
C      8.858080   -0.116039   -1.021522
C     -8.897552    0.943336   -1.688519
C      6.125000   -0.337464   -0.461170
C     -6.096397    1.089913   -1.735411
C     10.734572   -1.344475    0.562989
C      8.456972   -0.553333    0.213618
C     -8.165311    0.620747   -0.572489
C     11.224990   -0.234807   -0.310621
C    -11.052416    0.476221   -0.527050
C      4.088335   -1.622308   -0.471907
C     -3.997652    2.249223   -1.347126
C      9.463496   -0.903010    1.233747
C     -8.898995    0.191071    0.645046
C    -10.210029    0.905210    0.660462
N     11.552212    0.890158    0.484972
N    -11.341489   -0.893095   -0.387881
O      4.808104   -2.590861   -0.857486
O     -4.675056    3.256808   -0.954972
O    -10.941028    0.597455    1.821603
O      4.744867   -0.424461   -0.249045
O     -4.720660    1.153406   -1.738510
H      0.212070   -0.526329   -1.875193
H      0.268439   -2.142417   -1.179070
H     -1.977259   -1.636214   -1.808086
H     -1.773418   -1.998182   -0.040782
H      0.101409    0.362743    0.629606
H      0.358669   -1.333335    1.089146
H     -1.875192    0.401982    0.492701
H     -3.328642   -0.060381   -0.443024
H      2.239637    0.279976   -0.735619
H      2.427468   -0.108783    1.022085
H     -2.351108    0.642307   -2.549782
H     -0.804750    1.205382   -1.744989
H      9.655071   -4.540034    0.572991
H     11.361303   -4.239509    0.977856
H      9.554255   -3.975642    2.809223
H     10.953137   -2.878158    2.721236
H     -7.659481    2.172555    3.176498
H     -7.364872    2.525634    1.442913
H    -10.033949    2.288789    2.846989
H     -9.237752    3.784380    2.134753
H     16.181922    2.813187   -0.035517
H     14.864237    2.013752   -1.097800
H    -14.871928   -2.039182    1.981956
H    -13.171702   -1.260254    1.915983
H     13.583856    4.058026   -0.661005
H     14.488126    4.294149    0.973116
H     15.028152    1.999869    1.983232
H     14.440408    0.637282    0.825206
H    -15.516160   -1.124925   -0.073973
H    -14.074350    0.026629    0.044372
H    -12.549057   -3.357255    0.793128
H    -14.277909   -3.736758    0.482277
H      9.680624   -2.674973   -0.831392
H     11.455231   -2.835306   -0.776932
H      2.219570   -2.289666   -1.171052
H      2.486963   -2.476162    0.597849
H     -2.135922    2.772802   -0.385461
H     -2.227867    3.065314   -2.158441
H      8.232616    0.555755   -2.953567
H     -8.744257    1.606879   -3.734149
H      5.795517    0.354576   -2.445541
H     -6.268223    1.723946   -3.737662
H      8.888152   -1.640247    3.138919
H      8.023788   -2.463528    1.831512
H     -7.171859    0.079644    2.009479
H     -8.780806    0.129560    2.749842
H     -9.262569    2.753083   -0.065697
H    -10.954606    2.901306    0.558586
H     10.172402    0.003307    3.016782
H      8.765957    0.842956    2.340946
H     -8.558990   -1.699532   -0.295306
H     -8.653120   -1.786154    1.464542
H      9.939983    2.098021    0.887103
H     11.047954    1.950015    2.258104
H    -10.506950   -2.793395    0.030855
H    -10.934856   -1.785255    1.440395
H     10.422366   -0.625441   -2.314409
H     10.467168    1.080471   -1.821482
H    -10.617395    0.260955   -2.662772
H    -10.719651    1.942976   -2.030641
H      6.724176   -0.989389    1.424609
H     -6.214160    0.446113    0.258128
H     12.924396    1.404106   -0.959933
H     11.719568    2.730175   -0.575133
H    -12.677498   -0.664680   -1.963128
H    -11.871079   -2.290047   -1.846921
H     12.823729    2.812290    1.809615
H    -14.232177   -2.467945   -1.445941
H     11.531774   -1.534012    1.322817
H     12.180755   -0.586179   -0.794837
H    -12.012938    1.041143   -0.455938
H    -11.880640    0.913592    1.720787
