61

C      8.102495   -0.926517   -1.378051
C      7.997182   -0.774746    1.113566
C      8.471978    1.268382   -0.222839
C     -4.958145    0.276240    1.529290
C     -6.943419   -2.111356   -0.528665
C     -0.848142    1.642250    0.166390
C     -3.108764   -1.907248    0.591435
C      2.094996    1.445685    0.988992
C     -2.234794    1.678921    0.064856
C     -4.027037   -1.928382   -0.628758
C      3.475441    1.264594    1.022096
C     -6.418634    1.647046   -0.697423
C     -4.965557    1.740859   -0.430993
C     -0.899375   -0.685085    0.548682
C      1.956142   -0.712631    0.078160
C     -0.145401    0.482362    0.406857
C     -2.269636   -0.686427    0.454543
C      1.318108    0.440773    0.508702
C     -2.945878    0.482307    0.214257
C     -4.830034   -0.687598   -0.779397
C      4.086510    0.111254    0.589054
C     -7.006763    0.325473   -0.456665
C      6.282273    0.241939   -0.320175
C      7.727365   -0.048670   -0.192501
C     -4.411029    0.442982    0.123194
N      3.286762   -0.882264    0.111892
N      5.487245   -0.113548    0.604305
N     -6.250000   -0.877984   -0.590262
O     -8.230097    0.278946   -0.119497
O      5.767102    0.897060   -1.430258
H      7.402060   -0.796309   -2.206576
H      9.172029   -0.738660   -1.679700
H      7.983039   -1.987129   -1.026450
H      7.433920   -1.743555    1.032513
H      7.536240   -0.190023    1.915941
H      9.070223   -0.959270    1.229027
H      7.866708    1.995207    0.368846
H      9.474760    1.107291    0.223735
H      8.511737    1.643494   -1.251055
H     -5.578772    1.161230    1.830685
H     -5.595712   -0.621053    1.614958
H     -4.142800    0.226761    2.290907
H     -7.966426   -1.956159   -0.985595
H     -6.523448   -2.956391   -1.074133
H     -7.172156   -2.406109    0.533663
H     -0.298113    2.564743    0.051309
H     -2.483835   -2.842845    0.492378
H     -3.628025   -1.992345    1.540138
H      1.619708    2.356998    1.332838
H     -2.756871    2.591666   -0.121490
H     -3.324812   -2.003480   -1.503148
H     -4.560531   -2.872222   -0.583698
H      4.112875    2.052140    1.400790
H     -6.677762    1.954536   -1.754357
H     -6.949570    2.409765   -0.063201
H     -4.428533    1.947338   -1.374349
H     -4.732917    2.512094    0.352823
H     -0.385743   -1.605900    0.736362
H      1.362795   -1.529443   -0.309352
H     -4.726511   -0.287450   -1.830502
H      4.825548    0.640463   -1.711752
