49

C     -1.256226   -2.944852    0.994637
C     -2.474939   -2.424165    0.246040
C     -0.481786   -1.700708    1.454149
C      4.248127   -0.942918   -0.738389
C      5.145819    0.302915   -0.786178
C     -3.740757    1.736793    1.022874
C     -3.183930    0.771379    0.236429
C     -2.071884   -1.612092   -0.946288
C     -0.645327    0.181855   -1.848771
C      0.845517    0.099748   -1.979077
C     -1.623477    2.360849    1.857528
C      0.415334    1.260898    1.150303
C      2.732960    1.149023   -0.900021
C      3.849200    0.304027   -1.463813
C     -1.051270    1.369293    1.049732
C     -2.986600    2.549298    1.845671
C     -1.824031    0.574940    0.240383
C     -0.014323   -1.019754    0.209901
C      1.001475    0.072818    0.433407
C     -1.163807   -0.453302   -0.589505
N      1.517457    0.470046   -0.799453
O     -3.637943    3.505433    2.611121
H     -0.598388   -3.449937    0.255092
H     -1.566163   -3.571055    1.828680
H     -3.092961   -1.884443    0.980718
H     -3.018806   -3.308214   -0.113334
H      0.371722   -2.056245    2.036252
H     -1.178365   -1.081073    2.058350
H      3.866843   -1.210964    0.246846
H      4.641565   -1.806875   -1.334426
H      6.047795    0.237484   -1.460628
H      5.258684    0.852634    0.151368
H     -4.829722    1.846374    0.978136
H     -3.780973    0.127429   -0.415476
H     -1.448018   -2.283173   -1.592579
H     -2.940743   -1.345693   -1.542395
H     -0.930446    1.252949   -1.898947
H     -1.088728   -0.313225   -2.746973
H      1.079358   -0.935311   -2.335843
H      1.156570    0.775611   -2.803071
H     -1.037335    2.999557    2.501394
H      0.770752    1.321352    2.211228
H      0.838254    2.196579    0.679238
H      3.054941    1.455526    0.136925
H      2.585326    2.080027   -1.509388
H      3.765327    0.165982   -2.572065
H      0.481416   -1.781871   -0.437894
H      1.805939   -0.338316    1.109943
H     -3.813433    4.443367    2.288170
