54

C     -2.987474    1.676375    1.068817
C     -5.068750   -1.932848    1.191472
C      6.999331   -1.526161    1.783644
C      6.310108   -2.158167    0.786878
C      6.786615   -0.179604    1.986721
C     -1.056209   -0.526908    1.049037
C      4.734285   -2.162651   -1.014652
C     -0.129224    1.560320   -2.511214
C     -1.433004    1.599545   -2.006108
C     -2.430617   -1.121520    1.068796
C      3.842626   -1.469653   -1.803486
C     -5.473234    1.474229   -0.535756
C     -4.088099    1.484928   -1.171121
C      0.494417    0.199324   -0.717708
C      5.411260   -1.497987   -0.021259
C     -0.772113    0.221482   -0.202951
C      0.863341    0.854054   -1.870129
C     -1.746536    0.937894   -0.866990
C      5.897228    0.505836    1.197757
C     -3.361988   -0.554372    0.035773
C      3.635730   -0.119878   -1.592609
C     -5.746831    0.131566    0.011108
C      5.204049   -0.130295    0.195141
C     -3.100384    0.904016   -0.227163
N      4.328743    0.473651   -0.604489
N     -4.722582   -0.771249    0.403451
N      5.697572    1.886557    1.427088
O     -6.965025   -0.209322    0.126672
O      6.720088    2.697509    1.899645
O      4.602058    2.462653    1.222748
S      2.503260    0.844316   -2.565630
H     -1.991189    2.132453    1.204382
H     -3.151573    0.969209    1.907204
H     -3.778131    2.448853    1.163928
H     -4.628572   -2.833844    0.685614
H     -6.174374   -2.115548    1.198389
H     -4.761738   -1.859340    2.240586
H      7.710273   -2.021238    2.432139
H      6.500387   -3.225782    0.650438
H      7.334920    0.336116    2.783707
H     -0.907732    0.118093    1.934150
H     -0.310463   -1.344150    1.121926
H      4.873683   -3.212914   -1.203087
H      0.077821    2.105401   -3.427969
H     -2.208940    2.163319   -2.527472
H     -2.892045   -1.045285    2.074384
H     -2.366521   -2.225465    0.863200
H      3.272832   -1.924422   -2.605071
H     -6.177682    1.726892   -1.380751
H     -5.592656    2.286580    0.201290
H     -3.795989    2.546262   -1.351074
H     -4.118451    0.885787   -2.081540
H      1.297010   -0.358985   -0.218883
H     -3.159507   -1.105632   -0.924955
