49

C     -3.340863    0.343479    1.400644
C      5.820243   -1.986784   -0.196946
C      4.493173   -2.358086   -0.231623
C      4.619195    2.543116    0.395149
C      6.205172   -0.674349   -0.027286
C      5.608683    1.593690    0.268864
C      3.493916   -1.395298   -0.092954
C      3.283998    2.197454    0.365399
C      0.887966   -0.321619    1.098763
C     -1.592277    1.657006   -1.797357
C     -0.466108   -0.574027    1.048247
C     -2.993800    1.717889   -1.231376
C     -4.303699   -2.081757   -0.554723
C     -3.002859   -1.771399    0.153527
C      0.610149    1.183572   -0.699576
C      5.214391    0.274450    0.109568
C      1.460500    0.564685    0.224371
C     -0.741401    0.951896   -0.772938
C      3.859403   -0.092215    0.076517
C      2.891648    0.876317    0.206515
C     -1.287767    0.049620    0.125715
C     -3.461159    0.311693   -1.031798
C     -5.296072   -0.982816   -0.458033
C     -2.731187   -0.292066    0.156574
N     -4.882103    0.215617   -0.695178
O     -6.624299   -1.189821   -0.129311
H     -4.044022   -0.364105    1.897064
H     -2.557550    0.566655    2.159674
H     -3.901168    1.253016    1.187001
H      6.638485   -2.715089   -0.302373
H      4.231497   -3.387331   -0.365261
H      4.940322    3.575434    0.519088
H      7.259809   -0.382302   -0.000376
H      6.667499    1.830609    0.288438
H      2.449988   -1.672280   -0.131751
H      2.502618    2.938105    0.464059
H      1.512778   -0.821110    1.844298
H     -1.556954    1.127791   -2.766987
H     -1.225185    2.703877   -1.880868
H     -0.854157   -1.290114    1.772886
H     -2.918986    2.283675   -0.274006
H     -3.681691    2.277041   -1.891320
H     -4.077597   -2.195077   -1.653669
H     -4.728260   -3.055615   -0.236219
H     -2.176336   -2.310782   -0.394438
H     -2.990176   -2.189241    1.196207
H      1.073477    1.882346   -1.385432
H     -3.204171   -0.283782   -1.916065
H     -7.085063   -0.531968    0.489718
