49

C     -1.274289   -2.844874   -1.252727
C     -2.438112   -2.457082   -0.337734
C     -0.672405   -1.506902   -1.703533
C      5.287361   -0.549826    0.744237
C      5.201235    0.882280    0.434119
C     -4.032854    1.788429   -0.035432
C     -3.287336    0.712128    0.427961
C     -1.920622   -1.771617    0.880759
C     -0.375582   -0.057979    1.794058
C      1.105170   -0.044912    1.641444
C     -2.122432    2.649323   -1.165604
C      0.023487    1.534014   -1.100743
C      2.878590   -0.183322    0.111828
C      3.973534    0.146025    1.064296
C     -1.379269    1.565752   -0.696337
C     -3.449485    2.757530   -0.832439
C     -1.933424    0.596848    0.092007
C     -0.099221   -0.881649   -0.467796
C      0.776752    0.302565   -0.734281
C     -1.123132   -0.519438    0.566695
N      1.619157    0.492375    0.431014
O     -4.252899    3.815515   -1.265821
H     -1.574534   -3.479108   -2.081977
H     -0.497101   -3.287246   -0.588308
H     -2.983255   -3.368362    0.003076
H     -3.135834   -1.884651   -0.946760
H     -1.547845   -0.936348   -2.116028
H      0.127144   -1.631796   -2.435747
H      5.324023   -1.254593   -0.111943
H      5.937305   -0.854111    1.588173
H      5.038507    1.247777   -0.620093
H      5.667591    1.656753    1.061189
H     -5.085649    1.903714    0.209079
H     -3.755228   -0.019984    1.040128
H     -1.167149   -2.472716    1.343920
H     -2.689907   -1.632229    1.633865
H     -0.597940   -0.791594    2.619003
H     -0.744984    0.915636    2.168389
H      1.528354   -1.060283    1.884733
H      1.509341    0.602704    2.476435
H     -1.686834    3.412009   -1.786742
H      0.104109    1.788061   -2.199718
H      0.537916    2.405104   -0.603826
H      2.671647   -1.271710    0.013156
H      3.137939    0.166176   -0.909794
H      3.756361    0.404358    2.115477
H      0.563506   -1.666796    0.002923
H      1.385518    0.028074   -1.649277
H     -4.327224    4.655975   -0.705301
