60

C     -4.427123   -0.573243   -1.939931
C     -5.229303   -3.862314   -0.070000
C      8.529472   -0.668056    2.313087
C      7.374146   -0.757511    3.050584
C      8.507470   -0.008224    1.095331
C      2.467791    4.010688   -1.667948
C      6.203118   -0.208348    2.607289
C      7.347740    0.541627    0.643507
C      1.292014    3.305715   -1.534673
C      3.653351    3.462255   -1.231039
C     -1.182413    2.150893   -0.678008
C     -1.453590   -2.052527   -0.897570
C     -2.439185    1.561455   -0.563807
C     -2.734814   -2.690696   -0.552430
C     -5.750974   -0.348143    1.223977
C     -4.845003    0.412964    0.291335
C     -0.196197    0.026359   -0.923402
C      2.435639    1.487240   -0.527508
C      6.183853    0.456435    1.377663
C      1.278603    2.049794   -0.966183
C     -0.032900    1.386186   -0.861047
C     -1.458060   -0.573934   -0.808632
C      3.616264    2.184854   -0.657184
C     -2.560588    0.192336   -0.630930
C     -3.738331   -1.785956    0.114538
C     -6.119310   -1.612489    0.537213
C      4.932537    1.022699    0.932248
C     -3.895145   -0.444986   -0.503221
N      4.828359    1.635825   -0.221311
N     -5.028295   -2.449632    0.187475
O     -7.303108   -1.915349    0.285851
O      3.800156    0.933835    1.717661
H     -3.783959   -0.056513   -2.671530
H     -4.466050   -1.638649   -2.241310
H     -5.444815   -0.170445   -2.044109
H     -4.418983   -4.489591    0.345893
H     -5.396221   -4.054617   -1.166754
H     -6.178502   -4.177973    0.423863
H      9.443983   -1.117335    2.695153
H      7.404867   -1.284151    4.013995
H      9.449972    0.039874    0.540576
H      2.482444    5.005946   -2.117439
H      5.289746   -0.284243    3.199085
H      7.323809    1.054817   -0.299046
H      0.396097    3.781494   -1.892752
H      4.592071    4.001925   -1.326654
H     -1.091097    3.232489   -0.624626
H     -1.098555   -2.308729   -1.927631
H     -0.625406   -2.406671   -0.220567
H     -3.267082    2.242192   -0.428557
H     -2.551569   -3.533746    0.146146
H     -3.158121   -3.162893   -1.483680
H     -5.295976   -0.529360    2.215516
H     -6.649555    0.277701    1.406838
H     -5.493977    0.956571   -0.424496
H     -4.315456    1.158013    0.920536
H      0.705106   -0.562643   -1.065392
H      2.365578    0.497127   -0.093386
H     -3.412211   -1.638260    1.172789
H      3.137689    1.701185    1.804606
