49

C     -2.295283   -1.589799    1.075510
C     -5.060395    0.167902   -1.649850
C      5.249624   -1.575232    0.223200
C      3.934322   -1.377816    0.113487
C      6.115904   -0.527576    0.083173
C      1.409427    1.020372    0.589604
C     -1.174021   -1.784008   -1.233925
C      0.044358    1.113773    0.815658
C     -2.514252   -1.102426   -1.507404
C     -3.841840    1.475464    1.740222
C     -2.613190    0.645880    1.867680
C      1.134783   -1.018465   -0.627685
C      4.237717    0.976244   -0.278974
C      3.409197   -0.087431   -0.132425
C      1.943110   -0.044479   -0.114835
C     -0.231289   -0.945004   -0.427791
C      5.592577    0.715909   -0.168345
C     -0.724542    0.110202    0.294950
C     -2.812343    0.081895   -0.632212
C     -4.543479    1.370715    0.472803
C     -2.157995   -0.076817    0.697571
C      6.550609    1.829182   -0.351077
F      7.019165    2.293445    0.862277
F      7.679788    1.409550   -1.064122
F      5.968768    2.864155   -1.048475
N     -4.137455    0.522453   -0.591607
O     -5.593492    2.107752    0.374731
H     -1.328970   -2.046658    1.302636
H     -2.930235   -2.133551    0.377441
H     -2.872463   -1.667695    2.051714
H     -6.016935    0.670457   -1.446229
H     -4.639285    0.478141   -2.642744
H     -5.185794   -0.936216   -1.582086
H      5.615031   -2.574747    0.465557
H      3.238028   -2.217003    0.219629
H      7.175241   -0.743839    0.203692
H      2.074560    1.797431    0.957436
H     -1.175715   -2.809196   -0.926663
H     -0.699048   -1.840213   -2.300042
H     -0.319129    1.973264    1.357010
H     -3.335398   -1.847173   -1.568052
H     -2.503978   -0.689232   -2.570086
H     -4.597050    1.242660    2.551690
H     -3.604152    2.551961    1.917847
H     -2.848699   -0.080444    2.737515
H     -1.817751    1.242089    2.353427
H      1.566885   -1.827339   -1.199324
H      3.848263    1.940900   -0.512418
H     -2.233176    0.940560   -1.130087
