46

C      2.655601   -1.987692    0.649559
C      5.135125    0.661278   -1.740944
C      4.043706    0.022429   -1.191701
C      5.946591    1.442256   -0.952086
C      1.334657    0.013549    0.133000
C     -3.837663    0.841726    1.043219
C     -3.238539    1.138610   -1.296937
C     -3.810312   -1.101831   -0.531122
C     -1.493499    1.263453    0.498407
C     -2.204929   -0.949275    1.298057
C     -1.460304   -0.600155   -1.068870
C      4.610690    0.963621    0.906925
C      2.627889   -0.486239    0.772814
C     -2.894798    1.569831    0.088259
C     -3.621689   -0.640013    0.890054
C     -2.886905   -0.325473   -1.448409
C      3.772717    0.172883    0.153920
C      0.139704   -0.560941    0.813464
C     -1.246132   -0.236226    0.383697
N      5.672723    1.581247    0.356722
O      0.354373   -1.316369    1.747375
H      1.886325   -2.326492   -0.071598
H      2.395126   -2.442960    1.626117
H      3.659899   -2.376600    0.389807
H      5.315304    0.521154   -2.792459
H      3.365107   -0.605441   -1.752655
H      6.808460    1.939212   -1.415266
H      1.329976   -0.152141   -0.944447
H      1.275829    1.126321    0.301946
H     -4.874631    1.102583    0.737795
H     -3.606345    1.142048    2.066116
H     -4.340441    1.220385   -1.422501
H     -2.789494    1.767208   -2.088743
H     -3.569950   -2.194260   -0.547693
H     -4.847191   -1.000286   -0.871835
H     -1.408010    1.497021    1.592103
H     -0.724413    1.843111   -0.007526
H     -2.020324   -2.048171    1.229448
H     -2.012582   -0.582358    2.325428
H     -1.238354   -1.655246   -1.287646
H     -0.806349    0.051052   -1.669477
H      4.452657    1.122582    1.970278
H      2.605562   -0.225351    1.855247
H     -3.095871    2.658186    0.218353
H     -4.324711   -1.176567    1.543484
H     -3.034586   -0.671661   -2.489677
