17

C     -1.621131   -0.469512   -0.926338
C     -0.054656    1.620663    0.262226
C     -1.004022   -0.635895    0.431111
C      0.295530    0.172853    0.506624
C      2.431952   -0.781536   -0.066476
Cl     3.622113   -1.340617   -1.236471
O      2.730390   -0.873549    1.136094
O      1.217204   -0.262517   -0.474681
H     -2.604663    0.032442   -0.807595
H     -1.824530   -1.473042   -1.401356
H     -0.962880    0.057538   -1.636967
H     -0.896014    1.859404    0.973939
H     -0.360248    1.802000   -0.767875
H      0.829845    2.220603    0.571886
H     -0.809069   -1.711849    0.653344
H     -1.655067   -0.261079    1.244539
H      0.665246    0.044092    1.537996
