46

C      2.572664    1.582909    1.353689
C      5.341904    0.106523   -1.498762
C      4.140269    0.443284   -0.902093
C      6.202400   -0.835386   -0.961483
C      1.315812   -0.140259    0.163265
C     -3.928803    1.113615   -0.028803
C     -3.220915   -0.753272   -1.427337
C     -3.850820   -1.139219    0.957477
C     -1.541314    0.963636   -0.711147
C     -2.192122    0.549890    1.603170
C     -1.538424   -1.354558    0.232374
C      4.661669   -1.119190    0.788561
C      2.549150    0.094449    0.981972
C     -2.981661    0.709872   -1.118887
C     -3.641417    0.332512    1.231993
C     -2.968314   -1.564559   -0.190550
C      3.794853   -0.187416    0.270807
C      0.132614    0.219662    0.972863
C     -1.260093    0.120159    0.497269
N      5.829993   -1.430205    0.185840
O      0.313618    0.625020    2.106187
H      1.745430    2.137650    0.844157
H      3.525394    2.065226    1.058590
H      2.382723    1.661394    2.429454
H      5.677427    0.567995   -2.429984
H      3.488697    1.196484   -1.363954
H      7.150815   -1.084869   -1.454895
H      1.243614   -1.248380   -0.027562
H      1.339163    0.333342   -0.823208
H     -4.957770    0.809702   -0.358004
H     -3.940130    2.192010    0.184232
H     -4.276090   -0.843252   -1.743590
H     -2.524440   -1.071546   -2.209044
H     -4.920559   -1.345763    0.720290
H     -3.526170   -1.728287    1.846353
H     -0.868430    0.775784   -1.550843
H     -1.495409    2.028776   -0.382987
H     -1.935233    0.021266    2.546389
H     -2.052800    1.635904    1.775296
H     -1.296915   -1.892783    1.175475
H     -0.803609   -1.665543   -0.540308
H      4.450620   -1.657177    1.715287
H      2.466336   -0.522711    1.905044
H     -3.234861    1.291120   -2.043138
H     -4.258425    0.647980    2.073682
H     -3.110442   -2.641789   -0.382199
