46

C     -2.044771   -1.844778    0.723949
C     -4.524610    1.669816    0.907898
C      1.905552   -1.044430   -0.996663
C      4.725849   -1.031916   -0.472579
C     -0.440102    1.371627    1.564256
C      0.548399   -1.218160   -0.989022
C      6.092355   -0.852109   -0.499192
C     -1.851049    0.821342    1.718044
C     -3.777423   -1.321196   -1.400403
C     -2.331038   -0.937006   -1.546559
C      1.683476    0.654519    0.624686
C      4.471139    1.290056    0.002093
C      2.479105   -0.101245   -0.184169
C      3.931363    0.054424   -0.219587
C      0.313229    0.479988    0.633211
C     -0.290879   -0.464936   -0.177099
C      5.833405    1.458526   -0.026591
C      6.662515    0.379726   -0.279613
C     -2.374522    0.611205    0.320123
C     -4.499159   -0.230602   -0.651045
C     -1.761751   -0.674587   -0.188160
Cl     6.519608    3.045029    0.258164
F      8.023930    0.536527   -0.310901
N     -3.783679    0.667258    0.181266
O     -5.752284   -0.126314   -0.774610
H     -2.034097   -2.760521    0.062689
H     -3.034055   -1.777265    1.193423
H     -1.241940   -2.019625    1.468232
H     -3.879972    2.538950    1.214690
H     -4.985840    1.287141    1.827735
H     -5.288052    2.111069    0.204995
H      2.527910   -1.645129   -1.638624
H      4.304315   -2.026422   -0.651718
H     -0.565954    2.364155    1.044038
H      0.081228    1.476674    2.530668
H      0.142031   -1.970076   -1.642470
H      6.722716   -1.708279   -0.698554
H     -1.783801   -0.131843    2.284077
H     -2.499048    1.488473    2.286924
H     -3.887962   -2.244510   -0.803394
H     -4.266154   -1.411881   -2.392741
H     -1.829724   -1.741951   -2.106640
H     -2.305150   -0.004425   -2.153246
H      2.166433    1.392339    1.256467
H      3.840130    2.165329    0.205533
H     -1.941670    1.425031   -0.332638
