48

C     -3.160472    1.680146    1.570297
C      6.881138    0.300681   -2.477840
C      7.505359   -0.351898   -1.445079
C      5.520830    0.532380   -2.435847
C      6.746315   -0.766303   -0.374557
C      0.424072    0.780301   -1.084014
C     -1.450105   -0.678244    2.399659
C     -0.952461    0.948372   -0.913529
C     -2.898905   -0.954142    2.342368
C     -4.682642   -0.155686   -1.274107
C     -3.908750    1.029391   -0.667739
C      0.500600   -0.312924    0.994195
C      3.371780    0.351843   -1.316821
C      4.601990   -0.937610    0.724999
C      4.746788    0.127068   -1.377451
C     -0.854388   -0.143174    1.153679
C      1.189854    0.145082   -0.135429
C      5.393134   -0.524979   -0.353655
C     -1.604355    0.501772    0.180720
C      2.626594   -0.065907   -0.244804
C     -3.490655   -0.720830    0.975644
C     -5.526814   -0.687769   -0.160770
C     -3.046687    0.629838    0.453626
N      3.282571   -0.700898    0.742683
N     -4.891820   -0.951152    0.929098
O     -6.878861   -0.900975   -0.233420
H     -4.021987    1.459679    2.226696
H     -3.374325    2.639297    1.057770
H     -2.212933    1.792426    2.118587
H      7.455883    0.628123   -3.314738
H      8.590051   -0.534399   -1.482899
H      4.998722    1.049776   -3.244910
H      7.184186   -1.285780    0.468746
H      0.895463    1.156621   -1.978107
H     -1.189757   -0.038409    3.285039
H     -0.926635   -1.653696    2.606078
H     -1.484658    1.446479   -1.681558
H     -3.152636   -2.012978    2.620787
H     -3.441760   -0.327195    3.105735
H     -5.315739    0.264408   -2.079952
H     -4.002980   -0.905270   -1.680263
H     -4.743631    1.672594   -0.246684
H     -3.484553    1.628356   -1.468760
H      1.106256   -0.811824    1.737701
H      2.870237    0.862894   -2.121021
H      5.122606   -1.448467    1.522005
H     -3.005215   -1.482011    0.297123
H     -7.310704   -1.679571    0.280717
