63

C      6.999487    3.673119    0.352216
C     -7.906403    2.592099   -0.217002
C     -8.749410   -1.093572   -0.707247
C      8.190218    2.870264    0.773739
C     -8.039857    1.239252   -0.837685
C      8.406734    1.568385    0.095752
C      7.403037    0.489804    0.267060
C      6.035786    0.797638   -0.191547
C      5.112103   -0.410423    0.024573
C      5.565504   -1.565109   -0.738992
C      0.586460   -1.143538    0.502695
C      1.895287   -1.557795    0.328452
C      4.778597   -2.834122   -0.631134
C     -3.302959    0.183737    1.164032
C     -4.033409   -0.931853   -0.771194
C     -8.677562    0.214884    0.043390
C     -4.340553   -0.141325    0.315650
C     -0.406869   -1.496290   -0.372169
C      2.283582   -2.347840   -0.732049
C     -7.970764    0.051430    1.370682
C     -0.050282   -2.284109   -1.438450
C      1.239689   -2.702797   -1.626684
C     -1.775944   -1.049127   -0.169469
C     -6.574745   -0.438369    1.210177
Cl    -8.873280   -1.063157    2.420629
F     -1.050446   -2.630358   -2.304951
F      1.571989   -3.474778   -2.677413
N     -2.060501   -0.269849    0.908204
N     -2.770321   -1.363683   -0.987081
O     -6.183468   -1.524930    1.725154
O      3.513426   -2.801450   -0.983595
O     -5.649901    0.274750    0.491783
H      6.209493    3.730940    1.123918
H      7.399327    4.735460    0.205022
H      6.606947    3.418176   -0.636062
H     -8.759672    2.719705    0.492057
H     -8.042321    3.368676   -1.016954
H     -6.943156    2.685911    0.285386
H     -9.664747   -1.031370   -1.356899
H     -7.894873   -1.164979   -1.426221
H     -8.821526   -1.971142   -0.047416
H      8.077606    2.664527    1.885691
H      9.147392    3.461651    0.674562
H     -7.071650    0.873107   -1.263544
H     -8.711951    1.344014   -1.735848
H      9.436181    1.215776    0.399145
H      8.552626    1.794759   -1.016108
H      7.842220   -0.417923   -0.262755
H      7.325240    0.176367    1.356925
H      5.576772    1.656996    0.398402
H      5.989577    1.125657   -1.248678
H      5.009757   -0.638744    1.094601
H      4.112998   -0.015302   -0.315835
H      5.663267   -1.242727   -1.825750
H      6.619248   -1.811467   -0.433279
H      0.313973   -0.520316    1.349575
H      2.660719   -1.274593    1.058316
H      5.320351   -3.663358   -1.208435
H      4.924134   -3.222205    0.456345
H     -3.553824    0.803829    2.013139
H     -4.845624   -1.200838   -1.457214
H     -9.708730    0.543740    0.265280
H     -7.934982    1.024787    1.899256
