54

C     -4.290038   -0.213829    1.654997
C      8.615969    0.255955   -0.319483
C      8.263949   -1.058310   -0.531785
C      7.619497    1.180644   -0.123320
C      6.936633   -1.429687   -0.545688
C      2.307186   -1.626813   -0.404786
C     -0.482824   -1.387221    0.386746
C     -2.490283    2.177026   -0.908989
C      3.680501   -1.770418   -0.481408
C     -1.844087   -1.321480    0.461932
C     -3.825689    2.224467   -0.156483
C     -5.868664   -1.151073   -1.198685
C     -4.580553   -1.443855   -0.473101
C     -0.423557    0.813137   -0.510548
C      2.531371    0.683093   -0.016816
C      5.017518    1.565993    0.040586
C      1.707383   -0.408703   -0.173015
C      0.256742   -0.318483   -0.102233
C      6.279701    0.803260   -0.137788
C     -1.803558    0.917281   -0.449536
C      3.915868    0.603801   -0.082845
C      5.918405   -0.507422   -0.349180
C      4.467169   -0.640716   -0.317301
C     -2.503242   -0.163364    0.041357
C     -4.561417    0.984898   -0.526374
C     -6.645138   -0.047518   -0.545821
C     -3.983537   -0.209029    0.172166
N     -5.975080    1.028640   -0.209504
O     -8.003931   -0.134583   -0.298484
H     -4.309448   -1.286495    1.971253
H     -5.257776    0.222741    1.906404
H     -3.482387    0.328355    2.228016
H      9.678663    0.548443   -0.309184
H      9.058887   -1.794382   -0.687865
H      7.897120    2.202659    0.041660
H      6.666668   -2.455961   -0.711667
H      1.708946   -2.522052   -0.535687
H      0.057494   -2.268544    0.704050
H     -1.877045    3.070707   -0.677804
H     -2.747835    2.102051   -1.990685
H      4.161482   -2.702544   -0.659665
H     -2.393477   -2.180590    0.851553
H     -3.555120    2.200806    0.924559
H     -4.366842    3.163518   -0.366149
H     -5.688374   -0.916238   -2.278218
H     -6.502076   -2.062783   -1.200249
H     -3.851221   -1.784751   -1.242478
H     -4.728356   -2.255859    0.288278
H      0.122348    1.664306   -0.896834
H      2.063416    1.636084    0.164523
H      5.067765    2.021442    1.069331
H      4.927911    2.396794   -0.687824
H     -4.462013    0.797471   -1.627451
H     -8.425026    0.469133    0.421635
