48

C     -2.838379   -0.084615   -1.753871
C     -4.477524   -0.456693    2.164852
C      5.943535    0.087488    2.722206
C      6.626422   -0.379244    1.614140
C     -1.128933   -1.957894   -0.093861
C      1.546101    1.035221   -1.321016
C      0.208604    1.353830   -1.180534
C     -2.298321   -1.493105    0.712793
C     -4.042638    2.127507   -0.683277
C     -2.528801    2.059367   -0.646751
C      4.587754    0.319653    2.564225
C      1.116985   -1.177553   -0.672777
C     -0.224084   -0.890462   -0.523431
C      2.039572   -0.227774   -1.074436
C     -0.674721    0.399504   -0.784289
C      5.957966   -0.598176    0.404104
C     -2.517034   -0.019395    0.709078
C     -4.654963    1.088319    0.183777
C      4.597235   -0.350289    0.295968
C     -2.131381    0.625793   -0.600569
N      3.957528    0.102777    1.387903
N     -3.927145    0.225154    1.010740
N      6.654963   -1.075244   -0.729448
O     -5.904879    0.983947    0.168304
O      6.204056   -0.774897   -1.982078
O      7.673592   -1.764937   -0.582449
S      3.776898   -0.638198   -1.257640
H     -3.211235    0.658885   -2.509173
H     -2.133721   -0.735601   -2.324230
H     -3.639123   -0.738063   -1.370796
H     -5.581689   -0.351090    2.184183
H     -4.175066   -1.514489    2.231807
H     -4.060580    0.051703    3.067101
H      6.445904    0.261918    3.665797
H      7.683672   -0.567615    1.712160
H     -0.541719   -2.672117    0.544682
H     -1.500344   -2.593994   -0.946208
H      2.249157    1.784238   -1.633542
H     -0.166379    2.349845   -1.377389
H     -2.205481   -1.807697    1.792557
H     -3.236893   -1.985983    0.363166
H     -4.347034    3.113802   -0.244946
H     -4.450334    2.067977   -1.705695
H     -2.091702    2.693134    0.128659
H     -2.185108    2.481157   -1.629862
H      4.047996    0.687432    3.435540
H      1.506451   -2.186297   -0.474652
H     -1.949181    0.482771    1.521530
