57

C     -3.377941    0.205227   -1.730154
C     -5.579548    2.074101   -0.108660
C      4.274028   -1.925115   -2.394332
C      3.289522   -1.472607   -1.534366
C      5.584606   -1.519108   -2.246270
C      0.545440   -0.618894   -1.047428
C     -1.931635    0.538025    2.213635
C     -0.850146   -0.612382   -1.143478
C     -2.971225    1.402924    1.403265
C     -5.229293   -1.695157   -0.029137
C     -3.739080   -1.734052   -0.310042
C      0.321345   -0.000444    1.181536
C      3.051811    0.681611    1.389923
C      1.184174   -0.314009    0.121655
C     -1.046109    0.020126    1.099838
C      3.600214   -0.597860   -0.509825
C      2.626240   -0.162540    0.337506
C     -1.667802   -0.301634   -0.098238
C      5.913128   -0.652852   -1.221487
C      4.367143    1.026582    1.503256
C     -3.828419    0.411254    0.754907
C     -5.874163   -0.384964   -0.193939
C      4.944016   -0.193998   -0.357664
C     -3.103784   -0.373108   -0.333839
C      7.293133   -0.105624   -1.054130
C      4.752200    1.815034    2.754238
F      7.844948   -0.339712    0.154190
F      7.192784    1.285059   -1.260396
F      8.142896   -0.605529   -2.049498
F      3.879131    2.842818    2.951079
F      6.069344    2.154523    2.728305
F      4.576623    0.854860    3.773523
N      5.281224    0.602525    0.651653
N     -5.074716    0.780960    0.159161
O     -7.030984   -0.230650   -0.601713
H     -3.376534   -0.684780   -2.458572
H     -4.363653    0.651685   -1.812774
H     -2.539226    0.811517   -2.054658
H     -6.492353    1.994344   -0.757979
H     -4.865552    2.734685   -0.709241
H     -5.818389    2.701487    0.765406
H      4.023826   -2.604732   -3.209034
H      2.299790   -1.913567   -1.609481
H      6.405674   -1.809803   -2.890869
H      1.084973   -0.775753   -1.998440
H     -1.405250    1.314290    2.798086
H     -2.438844   -0.242186    2.784783
H     -1.261573   -0.903063   -2.134582
H     -2.335634    1.903734    0.627561
H     -3.426805    2.131624    2.091036
H     -5.336186   -1.951050    1.072292
H     -5.791744   -2.508396   -0.562399
H     -3.561602   -2.291509   -1.244748
H     -3.237414   -2.345617    0.493854
H      0.697728    0.258110    2.188592
H      2.361430    1.054464    2.097327
H     -4.051769   -0.380875    1.570768
