51

C     -3.644308    1.583215    0.880744
C     -4.691630   -1.597127   -1.909157
C      7.721998   -1.935767   -1.291650
C      8.295409   -0.733745   -0.921492
C      6.364524   -2.145034   -1.229311
C      7.463494    0.272452   -0.479390
C     -1.719509    1.570969   -1.596638
C      0.741081    1.053908    1.771017
C     -0.568288    0.605895    1.846312
C     -2.830875    0.590171   -1.764031
C     -4.717563   -0.708115    1.835597
C     -3.183788   -0.614288    1.820370
C      0.401845    1.802994   -0.437436
C      3.410229   -0.374477   -0.301111
C     -0.902484    1.367403   -0.390190
C      1.244033    1.654126    0.639725
C     -1.376887    0.764694    0.771690
C      5.524550   -1.138890   -0.786414
C      6.088853    0.054987   -0.418240
C     -2.995550   -0.346210   -0.600634
C      3.950804    0.837191    0.075792
C     -5.111211   -1.194697    0.475637
C     -2.811333    0.328125    0.726545
N      4.197816   -1.352065   -0.728564
N      5.272197    1.039447    0.014591
N     -4.255390   -1.032372   -0.648098
O     -6.238784   -1.752341    0.389835
S      2.935690    2.187848    0.659047
H     -3.711694    1.758163    1.995785
H     -3.057222    2.446066    0.510037
H     -4.633788    1.498756    0.414811
H     -3.873167   -1.687323   -2.646630
H     -5.484367   -0.962907   -2.345532
H     -5.138005   -2.610934   -1.779473
H      8.360649   -2.739862   -1.642336
H      9.359360   -0.549527   -0.963172
H      5.893146   -3.078324   -1.514076
H      7.831219    1.237039   -0.173040
H     -2.103867    2.607194   -1.671814
H     -1.024455    1.472820   -2.482778
H      1.358543    0.905806    2.660844
H     -0.960352    0.133293    2.737208
H     -3.806262    1.113677   -1.911597
H     -2.676946   -0.034651   -2.667556
H     -5.053491   -1.388192    2.634012
H     -5.118335    0.287804    2.024407
H     -2.774530   -1.637346    1.625337
H     -2.910233   -0.268734    2.840102
H      0.831954    2.284576   -1.323308
H      2.325279   -0.458977   -0.221821
H     -2.198359   -1.116714   -0.688267
