92

C      6.432323    0.925366   -2.409978
C      6.609596   -1.356895   -1.542862
C      4.921594   -0.787857   -3.265318
C     -3.267934    0.984992    3.360519
C     -4.461084   -1.137771    3.348858
C     -5.670835    1.032380    2.980700
C     -1.030157   -3.829842   -3.363328
C      5.484951    4.361645    0.940668
C      4.496697   -2.724476    2.902355
C     -7.194300   -3.037122   -0.715133
C     -4.826265    4.043453   -1.335451
C      4.351331    4.177510    0.197344
C      6.288691    3.272397    1.187430
C      4.487667   -1.362224    3.095683
C      4.479430   -3.223898    1.607117
C     -6.106749   -2.664395   -1.471810
C     -7.388033   -2.487780    0.542092
C     -4.107854    3.974468   -0.178552
C     -5.367203    2.884962   -1.847212
C      4.010471    2.930927   -0.299805
C      5.945814    2.031441    0.690321
C      4.461844   -0.551541    1.995291
C      4.453794   -2.392184    0.528428
C     -5.234880   -1.746564   -0.949941
C     -6.518532   -1.571773    1.063734
C     -3.928339    2.756222    0.467071
C     -5.185936    1.680627   -1.202973
C      0.314374   -0.934607   -2.132221
C      1.864466    0.120300   -0.455318
C     -1.816817    0.165072   -0.167494
C      0.520377    0.171411   -1.152284
C      4.802081    1.838426   -0.061255
C      4.444219   -1.017967    0.697480
C     -5.432094   -1.196281    0.313604
C     -4.458616    1.584813   -0.024039
C     -0.516312   -0.619121   -0.380323
C     -0.593738   -1.624824   -1.453216
C      5.631655   -0.299081   -2.027238
C     -4.401420    0.242201    2.727929
O      2.841541    0.209675   -1.422907
O     -2.658394   -0.673597    0.543180
S     -1.500841   -3.135129   -1.754951
Si     4.410205    0.156386   -0.689907
Si    -4.177114    0.025170    0.884018
H      6.668059    0.873124   -3.478816
H      5.910351    1.866476   -2.120439
H      7.400953    0.911742   -1.846279
H      7.623316   -1.187401   -1.959159
H      6.299343   -2.362415   -1.941937
H      6.711023   -1.357559   -0.442991
H      3.965174   -0.208175   -3.373384
H      4.636140   -1.862486   -3.134166
H      5.517387   -0.641814   -4.181317
H     -2.367092    1.060377    2.757639
H     -2.966410    0.500935    4.329543
H     -3.562207    2.036986    3.646830
H     -4.435018   -1.947223    2.568624
H     -5.317954   -1.255923    4.043097
H     -3.546913   -1.341758    3.980331
H     -6.223159    1.251541    2.036244
H     -5.440977    2.049330    3.411848
H     -6.318330    0.545991    3.743761
H     -1.715206   -4.662205   -3.585275
H     -1.159234   -3.063868   -4.173428
H      0.008007   -4.222470   -3.354109
H      5.701327    5.358434    1.303504
H      4.517006   -3.361930    3.769640
H     -7.931384   -3.764020   -1.067046
H     -4.963472    5.009633   -1.839245
H      3.697679    5.007684   -0.016096
H      7.179768    3.442227    1.777453
H      4.500122   -0.902453    4.078370
H      4.487384   -4.305819    1.498783
H     -5.988625   -3.113793   -2.446935
H     -8.248661   -2.786013    1.134984
H     -3.673619    4.877648    0.240162
H     -5.931820    2.955332   -2.761335
H      3.111393    2.822874   -0.880578
H      6.628741    1.211497    0.924399
H      4.454858    0.535075    2.157832
H      4.440070   -2.774604   -0.481698
H     -4.373625   -1.461852   -1.568258
H     -6.625898   -1.116133    2.035919
H     -3.353153    2.772650    1.371977
H     -5.619129    0.782587   -1.621675
H      0.774817   -1.105411   -3.098345
H      1.947708    1.008983    0.202090
H      1.909559   -0.840786    0.093803
H     -1.536866    1.004297    0.506644
H     -2.223273    0.482449   -1.126552
H      0.155227    1.155340   -1.441810
H     -0.133061   -1.072016    0.557086
