47

C     -1.588847    1.056581   -1.631060
C     -4.933666    1.538663    0.084158
C      6.104418    1.078505    0.248205
C      6.686951    0.324568   -0.753844
C      5.127122    0.570723    1.070179
C     -0.696422    1.751041    1.100734
C      1.327112   -1.944318    0.282213
C      0.111132   -1.626677   -0.305675
C     -2.192457    1.645331    1.088733
C     -3.552045   -1.942367   -0.553831
C     -2.533090   -1.176968   -1.416832
C      1.218192    0.158230    1.406594
C      5.296543   -1.508161   -0.122539
C      0.001454    0.466018    0.812611
C      6.268155   -0.980216   -0.928529
C      4.736282   -0.739755    0.862184
C      1.882087   -1.031929    1.150575
C     -0.546799   -0.454839   -0.056322
C     -2.696800    0.383209    0.508530
C     -4.599803   -0.904111   -0.240504
C     -1.836449   -0.102594   -0.669501
Cl     6.980615   -1.952632   -2.178469
N     -4.068009    0.370712    0.125164
O     -5.825590   -1.135533   -0.295179
S      3.458370   -1.383730    1.946673
H     -2.113867    1.976006   -1.310893
H     -1.963267    0.822623   -2.648976
H     -0.494806    1.254953   -1.751734
H     -5.127822    1.870408   -0.954652
H     -5.927955    1.184556    0.472206
H     -4.615252    2.341254    0.752928
H      6.419571    2.113765    0.405512
H      7.447170    0.733178   -1.386634
H      4.674914    1.162830    1.851373
H     -0.326204    2.113054    2.104726
H     -0.349296    2.557001    0.389703
H      1.839669   -2.876677    0.076898
H     -0.282740   -2.361652   -0.970710
H     -2.540124    1.692171    2.162490
H     -2.591818    2.564879    0.621277
H     -4.000523   -2.695364   -1.202421
H     -3.094057   -2.336862    0.358890
H     -3.199406   -0.654930   -2.173950
H     -1.922165   -1.844581   -2.017011
H      1.632999    0.889307    2.083535
H      4.961047   -2.545363   -0.258578
H     -2.554522   -0.420307    1.290655
