51

C     -3.030380    1.645874   -0.460698
C     -5.316472    0.227037    2.011676
C      7.414924    0.339794    1.253469
C      6.044755    0.378941    1.376363
C      0.881353    0.440539   -1.687472
C      3.654387   -0.301524   -1.939546
C     -1.047998   -0.752673    1.976078
C     -0.487478    0.479864   -1.559553
C      5.036458   -0.344603   -2.082482
C     -2.418585   -0.115254    2.071158
C     -4.618530   -0.813757   -1.596889
C     -3.169257   -0.498927   -1.601624
C      7.949566    0.073404    0.020955
C      0.950532   -0.369256    0.558264
C      3.869225    0.182580    0.353865
C      1.598849    0.001288   -0.587510
C      3.054863   -0.039158   -0.727570
C     -0.421820   -0.329476    0.685527
C      5.263376    0.147967    0.250357
C     -1.157269    0.103062   -0.392818
C      5.832888   -0.117944   -0.978327
C     -3.155653   -0.494098    0.836025
C     -5.300619   -0.594772   -0.302648
C     -2.644869    0.192925   -0.380951
N      7.180851   -0.145915   -1.048807
N     -4.579072   -0.273758    0.893226
O     -6.553153   -0.701108   -0.287239
H     -2.617934    2.258527    0.350176
H     -4.132857    1.738579   -0.445884
H     -2.697987    2.018646   -1.458582
H     -4.684366    0.582521    2.826324
H     -6.054701   -0.532046    2.398925
H     -5.969957    1.104237    1.729048
H      8.049445    0.521968    2.137674
H      5.598784    0.583008    2.323393
H      1.392661    0.735125   -2.598587
H      3.051885   -0.485328   -2.831154
H     -1.190009   -1.851669    1.965554
H     -0.411973   -0.501102    2.848342
H     -1.043770    0.829961   -2.436999
H      5.511721   -0.552781   -3.043065
H     -2.968510   -0.511118    2.954810
H     -2.267748    0.980554    2.130782
H     -4.729914   -1.887565   -1.931688
H     -5.197295   -0.232948   -2.361491
H     -2.520673   -1.401699   -1.782829
H     -2.969334    0.157820   -2.499074
H      9.016078    0.041112   -0.089163
H      1.564140   -0.710018    1.405498
H      3.444071    0.391816    1.326752
H     -3.002629   -1.598650    0.683498
