54

C     -4.296507    1.284361    0.008042
C     -4.678317   -2.882019    0.530981
C      8.055894    0.517013    0.427883
C      7.047915    1.430028    0.616740
C      7.749541   -0.739890   -0.033961
C     -2.155133    0.288519    2.027065
C      0.082299    2.242972   -1.102417
C      4.111532   -0.533882   -0.384216
C     -1.168784    1.656180   -1.331085
C     -2.932447   -0.885496    1.565819
C      3.140271    0.421964   -0.166760
C     -4.942588   -0.206917   -2.171678
C     -3.478470    0.225094   -2.033846
C     -0.149623    1.536808    1.189143
C     -1.381325    0.962416    0.953282
C      0.564888    2.162613    0.182845
C      5.428807   -0.200893   -0.127190
C     -1.879284    1.034920   -0.333684
C      5.739590    1.080440    0.343112
C      6.425431   -1.098916   -0.313397
C     -3.172982   -0.953106    0.082491
C      3.456734    1.679244    0.294267
C     -5.332345   -1.136422   -1.078600
C     -3.201706    0.413115   -0.565818
N      4.740553    1.979236    0.537670
N     -4.404756   -1.656296   -0.161626
N      6.228886   -2.409790   -0.779434
O     -6.543654   -1.444936   -1.004646
O      7.052322   -3.458461   -0.321336
O      5.366094   -2.682061   -1.619942
S      2.159148    2.888078    0.564174
H     -4.750100    1.851809   -0.827124
H     -3.891795    2.058190    0.696842
H     -5.072933    0.719360    0.521289
H     -4.775050   -3.748519   -0.178468
H     -3.876103   -3.173449    1.243830
H     -5.631535   -2.848636    1.105473
H      9.085231    0.824321    0.653996
H      7.251275    2.445014    0.983604
H      8.562495   -1.441070   -0.173446
H     -1.376430   -0.078366    2.760698
H     -2.778614    0.993979    2.625044
H      0.620393    2.727908   -1.912985
H      3.819750   -1.509135   -0.735425
H     -1.512630    1.736975   -2.349792
H     -2.484333   -1.843648    1.904631
H     -3.944568   -0.850294    2.061667
H      2.073756    0.228674   -0.349994
H     -5.593534    0.675208   -2.254893
H     -4.993117   -0.795695   -3.126628
H     -3.372746    1.163528   -2.628747
H     -2.865634   -0.595303   -2.416040
H      0.240946    1.476478    2.210921
H     -2.366704   -1.531248   -0.413451
