27

C     -1.121728   -2.785045    0.142187
C      0.154352   -2.232819    0.226356
C     -2.196650   -1.998641   -0.189174
C     -3.011279    1.600022   -0.593300
C     -1.667093    2.064416   -0.052977
C      2.291271   -0.171612    1.339697
C      3.735505    1.126189   -0.231297
C      2.319821    0.915303    0.238041
C      0.373575   -0.892185   -0.024861
C      1.709659   -0.346799   -0.104148
C     -1.980149   -0.651983   -0.441082
C     -0.713111   -0.125318   -0.359487
O      4.456667    0.144955   -0.347221
O     -3.006436    0.194765   -0.778991
O     -0.621568    1.244360   -0.650295
H     -1.289395   -3.845438    0.333198
H      0.943426   -2.915824    0.492547
H     -3.178530   -2.475425   -0.253893
H     -3.272001    2.164639   -1.517095
H     -3.743048    1.831721    0.202541
H     -1.664202    1.865665    1.023868
H     -1.463608    3.136707   -0.246826
H      3.130641   -0.788561    1.540028
H      1.542629    0.027551    2.141702
H      4.121075    2.095482   -0.470459
H      1.779068    1.858715    0.348236
H      2.371106   -1.040840   -0.774642
