29

C      3.055156   -1.549068   -0.331020
C      3.167088   -0.381512    0.598957
C      1.801542    0.262899    0.769920
C      1.323224    0.721963   -0.571524
C     -2.657567   -1.107078    0.382852
C     -0.005992    1.368032   -0.610449
C     -1.221153   -0.722751    0.085373
C     -3.162142    0.255168    0.879882
C     -1.158794    0.551324   -0.245472
C     -2.558637    1.129616   -0.200251
O     -3.206959    0.811630   -1.388074
H      3.657128   -2.395454    0.061494
H      3.421953   -1.269474   -1.340724
H      2.005681   -1.888046   -0.344588
H      3.593562   -0.678986    1.575576
H      3.830372    0.395170    0.169445
H      1.999992    1.191562    1.399574
H      1.150458   -0.386535    1.331109
H      2.127672    1.417262   -0.957726
H      1.390674   -0.153374   -1.268092
H     -2.723755   -1.878272    1.146256
H     -3.130050   -1.372720   -0.586976
H      0.057280    2.322555   -0.030552
H     -0.183019    1.699380   -1.682843
H     -0.456297   -1.477261    0.154585
H     -4.247085    0.301386    0.932102
H     -2.651915    0.415926    1.865178
H     -2.560446    2.188063    0.039149
H     -2.657968    0.228598   -1.969108
