73

C     -2.869747   -1.242638   -3.148928
C     -5.290563   -0.947112   -3.522593
C     -4.505875   -2.705176   -2.036514
C     -5.967358    3.218897    1.669710
C     -3.606814    3.016412    2.237200
C     -5.285433    1.476371    3.230347
C      5.168615    0.751676    1.371342
C      6.750239    0.755736   -2.401668
C      2.846713    0.768444   -0.394261
C      2.066179   -2.642651    1.913986
C      3.375441   -2.224923    1.699700
C     -5.259206    0.593238   -1.330161
C     -5.499504    1.474933   -0.327309
C      3.968320    0.530138   -1.358200
C      7.389563   -0.799774    1.005731
C      6.062899   -1.497805    1.129978
C      1.230112   -0.857931    0.638087
C      2.543912   -0.439381    0.423453
C      0.984535   -1.967767    1.388635
C      3.621869   -1.116855    0.950501
C     -4.324933   -0.418053   -1.300348
C     -4.717215    1.317259    0.817968
C      5.070778   -0.326898   -0.813550
C      7.364430    0.230443   -0.081056
C     -3.537278   -0.593958   -0.175144
C     -3.776841    0.305397    0.857748
C     -1.927710   -1.643718    1.001999
C     -4.222387   -1.276642   -2.513186
C     -4.893823    2.224730    1.977000
C      4.975160   -0.573678    0.654450
N     -2.601636   -1.470535    0.076107
N      6.386284    0.218533   -1.104654
O      8.268505    1.107318   -0.026039
S     -0.628738   -2.617580    1.745868
S     -2.596191   -0.225504    2.109975
H     -2.073619   -1.117940   -2.387125
H     -2.784643   -0.376620   -3.831403
H     -2.744320   -2.181013   -3.729049
H     -5.149986    0.038993   -4.006474
H     -6.269551   -1.096099   -3.062239
H     -5.202331   -1.707596   -4.336268
H     -4.921284   -3.299491   -2.882452
H     -3.601211   -3.184717   -1.656817
H     -5.316284   -2.625669   -1.276459
H     -5.738626    3.875277    0.818588
H     -6.923768    2.645717    1.519493
H     -6.146697    3.861322    2.553216
H     -3.442951    3.670307    1.363160
H     -3.760334    3.607653    3.144733
H     -2.797057    2.302361    2.410154
H     -5.548117    0.420802    3.028855
H     -4.465590    1.563534    3.997553
H     -6.177150    1.938984    3.712984
H      4.301038    0.908860    2.056838
H      5.318144    1.594631    0.679370
H      6.062324    0.741703    2.040513
H      5.918982    0.733543   -3.122856
H      7.605598    0.229966   -2.861162
H      7.110080    1.812453   -2.236595
H      2.965544    1.682663    0.221430
H      1.916545    0.960740   -1.006110
H      1.951899   -3.533300    2.520881
H      4.216640   -2.770621    2.122072
H     -5.882290    0.725403   -2.231754
H     -6.231117    2.242624   -0.390017
H      3.545496    0.078666   -2.286058
H      4.371264    1.521821   -1.672163
H      8.181099   -1.537121    0.681797
H      7.763104   -0.378625    1.960833
H      5.893928   -1.627559    2.239947
H      6.054239   -2.475867    0.642022
H      0.404033   -0.324562    0.224509
H      5.034667   -1.322166   -1.330124
