18

C      2.180365    1.316072   -0.014220
C     -1.590168   -1.379873    0.285131
C      1.950374   -0.176853    0.103752
C     -2.343048   -0.117203    0.186025
C      0.551145   -0.491471   -0.266124
Br     2.380400   -0.854713    1.846632
N     -0.216359   -1.053865    0.601290
O     -3.570930   -0.177304   -0.084573
O     -1.784065    1.139733    0.372435
O      0.037910   -0.200104   -1.518609
H      2.483111    1.700849    0.983636
H      1.256034    1.847024   -0.339897
H      2.959582    1.537497   -0.774803
H     -2.011731   -2.068528    1.044221
H     -1.672040   -1.918423   -0.698582
H      2.644014   -0.689444   -0.623352
H     -2.350933    1.967869    0.242854
H     -0.903662   -0.381262   -1.797473
