27

C      0.789697    2.169761   -1.836372
C     -0.413750    1.570595   -1.437073
C      1.961761    1.831753   -1.197314
C      3.088827   -0.293684    1.597228
C      1.996639   -1.301548    1.447757
C     -2.944834    0.182393   -0.712785
C     -2.989349   -2.098775    0.493531
C     -2.274637   -1.200805   -0.449648
C     -0.425878    0.647147   -0.409300
C     -1.642468    0.009488    0.052980
C      1.975400    0.916232   -0.173163
C      0.764737    0.329468    0.210813
O     -3.297964   -1.674607    1.584783
O      3.133286    0.560083    0.483872
O      0.771928   -0.581407    1.226798
H      0.805955    2.882054   -2.626404
H     -1.329851    1.828789   -1.929721
H      2.881646    2.303489   -1.518001
H      4.077947   -0.815038    1.713527
H      2.871650    0.308823    2.504523
H      1.898655   -1.973422    2.323275
H      2.191470   -1.903580    0.538362
H     -2.896506    0.588427   -1.726858
H     -3.900761    0.328966   -0.165533
H     -3.245762   -3.113818    0.247605
H     -2.029722   -1.695252   -1.406611
H     -1.818117    0.194470    1.163729
