44

C     -2.490125   -0.779757   -2.061176
C     -4.740444    1.294072    0.148144
C     -4.042147    1.311530    1.336076
C      4.858900    1.609186   -0.005447
C      0.139979   -2.571973    1.199499
C     -4.207391    0.614151   -0.909993
C      3.639108    2.178212    0.187902
C      1.440616   -2.148518    0.476103
C      4.956123    0.259177   -0.236878
C     -2.840786    0.645345    1.406423
C      1.220229    2.183917    0.364970
C      0.011755    1.356506    0.174515
C     -0.976616   -2.195296    0.224439
C     -3.007965   -0.056057   -0.854209
C      2.464737    1.411238    0.156781
C      1.312981   -0.762217   -0.104553
C      3.794948   -0.476074   -0.263876
C     -2.294482   -0.043923    0.343384
C      0.173743   -0.062996    0.601801
C      2.521310    0.056648   -0.070932
Br     3.984482   -2.333897   -0.621502
N     -1.086436   -0.737981    0.388530
H     -1.441702   -0.504911   -2.170283
H     -3.044357   -0.423230   -2.928717
H     -2.680124   -1.851663   -1.886929
H     -5.687263    1.801531    0.042894
H     -4.402558    1.827082    2.209803
H      5.774975    2.204562    0.018682
H      0.041037   -2.075638    2.166335
H      0.128159   -3.677260    1.287793
H     -4.774465    0.609803   -1.846839
H      3.555741    3.243180    0.370780
H      2.225312   -2.224102    1.250732
H      1.539423   -2.938758   -0.301180
H      5.937294   -0.191712   -0.391579
H     -2.278212    0.653323    2.346220
H      1.222036    3.058747   -0.344913
H      1.234240    2.643720    1.378568
H     -0.832605    1.809446    0.729245
H     -0.275766    1.385931   -0.897357
H     -0.609432   -2.370736   -0.790346
H     -1.919886   -2.691587    0.456275
H      1.029263   -0.923384   -1.185957
H      0.426370   -0.115637    1.701690
