48

C     -2.451006    0.184176   -1.754706
C     -4.664111    1.962594    0.496117
C      5.581523   -1.885823    0.575602
C      6.337059   -0.777050    0.326172
C      4.202785   -1.771110    0.447404
C      1.455131   -1.636903   -0.440820
C     -0.651470    1.964221    0.428154
C      0.083445   -1.573805   -0.557950
C     -1.853114    1.563505    1.243482
C     -4.140491   -1.754776   -0.093522
C     -2.677516   -1.747287   -0.355534
C      4.377544    0.502386   -0.160606
C      1.450960    0.639913    0.239818
C      6.572516    1.574978   -0.299005
C      5.760683    0.414976   -0.039580
C      3.603073   -0.593478    0.083936
C      2.165588   -0.521222   -0.036660
C      0.085400    0.716473    0.127330
C     -0.609407   -0.402648   -0.276354
C     -2.637654    0.422034    0.746115
C     -4.764664   -0.431885    0.011776
C     -2.075749   -0.354892   -0.407822
N     -4.019769    0.708556    0.429796
O      6.027157    2.653958   -0.632477
O     -6.003877   -0.329816   -0.283768
H     -2.611466    1.261859   -1.793206
H     -1.594254   -0.037088   -2.438756
H     -3.328379   -0.309759   -2.197600
H     -4.491015    2.541699    1.419425
H     -5.762342    1.841062    0.412004
H     -4.355352    2.593083   -0.361410
H      6.060221   -2.813775    0.862357
H      7.413410   -0.851057    0.421913
H      3.635563   -2.673909    0.653802
H      1.978174   -2.563685   -0.665980
H     -0.911863    2.543647   -0.474057
H     -0.052352    2.660847    1.061978
H     -0.477372   -2.451389   -0.875743
H     -2.456107    2.510519    1.372120
H     -1.440543    1.396965    2.286522
H     -4.667486   -2.327482   -0.910298
H     -4.363554   -2.353523    0.836330
H     -2.149374   -2.367102    0.411377
H     -2.455167   -2.263524   -1.335375
H      3.948133    1.446761   -0.448219
H      1.994496    1.505035    0.552558
H      7.637560    1.509461   -0.205631
H     -2.704967   -0.325722    1.598989
