48

C     -2.406481   -1.398016   -1.391265
C     -4.685288    0.367328    1.893618
C      5.558557   -1.244031    0.722076
C      6.336404   -0.146125    0.405915
C      4.201818   -1.165180    0.485671
C      1.639371    0.718108   -1.310428
C     -0.875769   -1.555589    1.336930
C      0.264891    0.698161   -1.469248
C     -2.243865   -0.993064    1.510974
C     -4.042047    0.832070   -1.869118
C     -2.561371    1.007489   -1.714763
C      4.425481    1.031355   -0.348445
C      1.347513   -0.727929    0.549404
C      6.650595    2.140260   -0.449866
C      5.787774    1.009736   -0.133802
C      3.639281   -0.040864   -0.043698
C      2.195112   -0.015647   -0.271903
C     -0.028499   -0.749485    0.392481
C     -0.566708   -0.019117   -0.639167
C     -2.601719    0.117292    0.595362
C     -4.717767    0.525382   -0.593225
C     -2.039155   -0.048466   -0.797995
N     -4.012346    0.339707    0.610700
O      7.885623    2.062109   -0.231900
O     -5.960719    0.428139   -0.587255
H     -2.746317   -1.303259   -2.454940
H     -3.270480   -1.819754   -0.833909
H     -1.540217   -2.093465   -1.420923
H     -4.144558    1.110033    2.550877
H     -4.633846   -0.618881    2.419776
H     -5.722628    0.706447    1.841339
H      6.006695   -2.153374    1.149214
H      7.417747   -0.181652    0.583518
H      3.557925   -2.015444    0.724366
H      2.268636    1.290786   -1.977601
H     -0.400526   -1.608039    2.344856
H     -0.912962   -2.629738    0.991172
H     -0.146208    1.291126   -2.303257
H     -2.992229   -1.816184    1.370493
H     -2.432909   -0.633249    2.565090
H     -4.298764    0.014276   -2.581199
H     -4.517143    1.753674   -2.296136
H     -2.376542    2.041212   -1.377664
H     -2.105335    0.814602   -2.728583
H      3.975043    1.923999   -0.769230
H      1.739618   -1.325733    1.387449
H      6.206720    3.023152   -0.865990
H     -2.122410    1.055844    1.002591
