48

C     -2.255989   -1.702654   -1.066950
C     -4.707879    1.585658   -1.134758
C      5.869495   -1.213640   -0.483314
C      6.583486   -0.231377    0.164981
C      4.494294   -1.248904   -0.481449
C      5.884493    0.738017    0.831957
C      1.653528   -1.298426    0.848559
C     -0.551653    1.465674   -1.454468
C      0.288676   -1.425254    0.816826
C     -1.997575    1.039696   -1.698550
C     -3.752479   -0.586069    1.840023
C     -2.528955   -1.244902    1.303662
C      1.539895    0.567512   -0.574118
C      2.320292   -0.288279    0.147131
C      0.153164    0.455300   -0.618447
C      3.773675   -0.251643    0.203639
C     -0.493941   -0.534810    0.070513
C      4.470187    0.726839    0.851765
C     -2.537922    0.674449   -0.335840
C     -4.591826   -0.093132    0.719013
C     -1.973583   -0.676938    0.040819
N     -3.957483    0.727674   -0.254389
N      3.805956    1.723729    1.592064
O     -5.807756   -0.397916    0.649855
O      4.409982    2.226212    2.729738
O      2.715587    2.167425    1.277175
H     -1.427060   -1.699584   -1.820808
H     -3.219396   -1.530600   -1.546809
H     -2.283029   -2.735881   -0.646489
H     -4.621926    1.299538   -2.200758
H     -4.355852    2.646052   -0.975783
H     -5.797709    1.616409   -0.847729
H      6.437864   -1.976027   -1.007401
H      7.681836   -0.219039    0.152012
H      3.936972   -2.018161   -0.989197
H      6.384614    1.534539    1.359224
H      2.259144   -1.982477    1.422434
H     -0.606748    2.395728   -0.848197
H     -0.020843    1.703387   -2.381778
H     -0.197134   -2.211154    1.362614
H     -2.513721    1.933932   -2.111410
H     -2.063389    0.236112   -2.430985
H     -4.341579   -1.340793    2.419624
H     -3.444526    0.241384    2.517688
H     -2.751208   -2.348544    1.206149
H     -1.772520   -1.213932    2.145106
H      2.032739    1.355502   -1.149129
H     -2.122197    1.409365    0.386183
