49

C     -1.956243   -0.152830    1.742853
C     -4.863808    1.842205    0.833659
C      7.838143    1.357483    0.696041
C      6.671693    1.635874    1.373549
C      7.724748    0.577128   -0.456184
C     -1.463814    1.261688   -1.754995
C      0.882897   -2.129894   -0.819592
C     -0.284565   -1.956126   -0.123289
C     -2.450080    1.592368   -0.659388
C     -4.563867   -1.900983    0.243617
C     -3.091872   -1.966762    0.554023
C      0.516208   -0.171572   -2.060535
C     -0.681244    0.031541   -1.365461
C      1.302493   -1.248932   -1.793166
C     -1.091304   -0.850022   -0.398118
C      5.460603    1.189684    0.967807
C      6.492219    0.140109   -0.843358
C     -3.205889    0.321173   -0.370257
C     -5.171347   -0.607742    0.717241
C      5.303549    0.403766   -0.183167
C      4.118626   -0.769010   -1.690870
C     -2.371929   -0.672860    0.378292
Cl     4.061891    1.644172    1.962346
N      4.235323   -0.111800   -0.725139
N     -4.413080    0.561123    0.398464
O     -6.257957   -0.566528    1.342033
S      2.843553   -1.580587   -2.633763
S      5.911896   -0.866748   -2.234235
H     -1.158645    0.611892    1.635331
H     -1.495164   -1.018888    2.280363
H     -2.809660    0.186631    2.336558
H     -4.131255    2.634579    0.683828
H     -5.182074    1.865022    1.896277
H     -5.776292    2.111805    0.227605
H      8.796034    1.703262    1.006218
H      6.722831    2.256668    2.298761
H      8.588100    0.305649   -1.056339
H     -1.984175    0.973157   -2.704137
H     -0.772302    2.124847   -1.924156
H      1.510999   -3.003574   -0.596041
H     -0.621885   -2.646282    0.645520
H     -3.175177    2.311165   -1.088992
H     -1.899750    1.962539    0.206064
H     -5.126287   -2.711387    0.700884
H     -4.666670   -1.972099   -0.868481
H     -2.996610   -2.334768    1.612397
H     -2.651560   -2.754072   -0.099351
H      0.837471    0.523700   -2.821873
H     -3.504773   -0.135760   -1.328559
