46

C      2.498099   -1.792102    1.295233
C      4.052476   -0.436081   -0.942191
C      4.617209    0.981049    0.844981
C      5.201766   -0.082655   -1.603774
C      5.789476    1.348718    0.182361
C      1.302572    0.040186    0.153453
C     -3.846419   -1.099425   -0.643018
C     -2.949624    0.855835   -1.917132
C     -3.871708    1.181414    0.366804
C     -1.452931   -0.874216   -1.048681
C     -2.357451   -0.534458    1.211769
C     -1.414582    1.365349   -0.101290
C      2.502401   -0.290887    1.006365
C     -2.808569   -0.617893   -1.627074
C     -3.723882   -0.304182    0.632579
C     -2.813308    1.619036   -0.612674
C      3.740526    0.095456    0.303250
C      0.029290   -0.317213    0.847148
C     -1.296850   -0.105169    0.250162
N      6.039913    0.802710   -1.020122
O      0.117964   -0.803476    1.953113
H      1.890781   -2.276006    0.529280
H      2.122227   -1.952489    2.305571
H      3.555566   -2.129183    1.232946
H      3.353240   -1.136108   -1.363549
H      4.414089    1.424242    1.820822
H      5.444362   -0.499807   -2.578761
H      6.449987    2.046276    0.642004
H      1.387306   -0.484151   -0.807040
H      1.256628    1.129128   -0.043618
H     -3.605476   -2.157536   -0.400754
H     -4.870407   -0.994003   -1.063201
H     -2.110164    1.156656   -2.562497
H     -3.888554    1.095176   -2.445270
H     -3.721682    1.699713    1.318505
H     -4.850804    1.366470   -0.078240
H     -1.361947   -1.970780   -0.854547
H     -0.685631   -0.526415   -1.760155
H     -2.175344   -1.597571    1.464791
H     -2.244473    0.075838    2.151470
H     -0.731149    1.523605   -0.981878
H     -1.104508    2.030662    0.702047
H      2.462493    0.249450    1.967815
H     -2.909300   -1.165127   -2.595392
H     -4.493071   -0.643616    1.358160
H     -2.940534    2.703580   -0.768836
