46

C      2.576358   -1.212450   -1.814509
C      4.067264    1.342883   -0.813572
C      4.668564   -0.195356    0.852713
C      5.169710    2.079126   -0.496272
C      5.776811    0.589539    1.137215
C      1.310953    0.041920   -0.111151
C     -4.030078   -0.178561   -0.825309
C     -3.614545   -0.792079    1.571879
C     -3.243630    1.528521    0.724885
C     -2.171380   -1.620211   -0.205243
C     -1.658016    0.625084   -0.987893
C     -1.351847    0.135554    1.375370
C      2.629649   -0.678406   -0.410528
C     -3.585769   -1.263227    0.136871
C     -3.085988    0.990470   -0.684179
C     -2.793220    0.460374    1.697023
C      3.783402    0.168881   -0.137485
C      0.160174   -0.888610   -0.236091
C     -1.233617   -0.467620   -0.006527
N      6.026906    1.722279    0.465806
O      0.401918   -2.042414   -0.541827
H      2.337234   -2.288021   -1.821216
H      1.763649   -0.690310   -2.359399
H      3.501432   -1.012829   -2.390201
H      3.394210    1.644161   -1.585188
H      4.552032   -1.091136    1.448848
H      5.371449    2.986555   -1.033012
H      6.467073    0.297076    1.915883
H      1.387982    0.454454    0.926261
H      1.210727    0.934299   -0.778050
H     -5.033324    0.149068   -0.546801
H     -3.968599   -0.629548   -1.844814
H     -3.114620   -1.587490    2.173857
H     -4.631133   -0.689660    1.972258
H     -4.327295    1.690631    0.891247
H     -2.652164    2.439690    0.905270
H     -1.782430   -2.479418    0.378976
H     -2.141776   -1.882071   -1.294950
H     -1.635697    0.245275   -2.031192
H     -1.046433    1.530951   -0.835310
H     -0.807873    1.119764    1.326355
H     -0.847605   -0.447478    2.154182
H      2.646754   -1.550320    0.273695
H     -4.200143   -2.177960    0.017074
H     -3.400995    1.812054   -1.366741
H     -2.846073    0.876565    2.717226
