49

C     -2.873287   -0.211250   -1.659307
C     -5.521726    1.543458    0.339719
C      7.839086   -0.640735   -0.606792
C      8.121206    0.487515    0.117218
C      6.582017   -1.102899   -0.873195
C      7.009748    1.182405    0.597109
C      1.144027   -1.075717   -0.711826
C     -1.235694    1.847895    1.246423
C     -0.238553   -1.220537   -0.769174
C     -2.646862    1.911289    0.648336
C     -4.296298   -2.074136    0.384942
C     -2.830170   -1.823750    0.234269
C      0.965545    0.892345    0.568846
C      4.148895   -0.728329   -0.566033
C     -0.428207    0.804842    0.548957
C      5.452159   -0.410152   -0.394207
C      1.746818   -0.043876   -0.058787
C     -1.014281   -0.258639   -0.125044
C      5.734303    0.706776    0.322465
C      3.196448    0.041796   -0.041561
C     -3.207827    0.531957    0.707766
C     -5.133457   -0.877550    0.172765
C     -2.487126   -0.437236   -0.202138
N     -4.610132    0.445477    0.413666
O     -6.312160   -1.037984   -0.222437
S      4.129684    1.337961    0.774100
H     -3.840091    0.280728   -1.760891
H     -2.902000   -1.217247   -2.127043
H     -2.090643    0.407101   -2.173342
H     -5.006707    2.519944    0.315615
H     -6.065130    1.446536   -0.645411
H     -6.309147    1.504197    1.147562
H      8.705224   -1.195888   -0.989590
H      9.135353    0.775875    0.277358
H      6.485207   -2.019933   -1.465146
H      7.144083    2.072339    1.170506
H      1.736312   -1.824882   -1.213199
H     -1.352972    1.591808    2.334396
H     -0.696034    2.803393    1.108021
H     -0.656538   -2.055864   -1.299723
H     -2.602902    2.327484   -0.375134
H     -3.228768    2.556982    1.317925
H     -4.664944   -2.897989   -0.292814
H     -4.498412   -2.459288    1.421121
H     -2.291169   -2.013405    1.194734
H     -2.436186   -2.606063   -0.468877
H      1.449864    1.702507    1.081304
H      3.818435   -1.640770   -1.148854
H     -3.066993    0.151512    1.745404
