38

C     -2.198771    1.233813    1.403402
C     -1.545273    2.210003    0.455918
C     -1.384081   -0.033016    1.586414
C      2.596285   -1.061123    1.155671
C      3.401099    0.055110    1.243702
C     -1.058100    1.566922   -0.806786
C     -0.315954   -0.453328   -1.963558
C     -1.299699   -1.603157   -2.073044
C      1.725995    1.328772    0.111396
C      0.542928   -2.190760    0.477477
C      1.351769   -0.970282    0.540132
C      2.971161    1.250408    0.723949
C      0.901779    0.229548    0.009628
C     -1.302551   -0.668364    0.239789
C     -0.409849    0.240687   -0.616924
N     -1.180534   -2.561589   -1.020785
N     -0.840750   -2.015631    0.207856
O      3.735057    2.400729    0.783539
H     -3.176247    0.917929    0.975567
H     -2.375282    1.747145    2.358743
H     -0.735048    2.767862    0.968931
H     -2.319128    2.961685    0.189210
H     -0.374779    0.316453    1.953731
H     -1.870736   -0.645615    2.351119
H      2.978497   -1.979093    1.579556
H      4.389418    0.018691    1.723076
H     -1.940593    1.413833   -1.474816
H     -0.398585    2.272251   -1.330054
H      0.695072   -0.883758   -2.143908
H     -0.529816    0.242749   -2.793574
H     -1.035603   -2.130703   -3.029709
H     -2.342632   -1.238712   -2.217884
H      1.348754    2.247299   -0.309977
H      0.740430   -2.780422    1.401756
H      0.988351   -2.824321   -0.344287
H     -2.325138   -0.647463   -0.206489
H     -2.053210   -3.128022   -0.991448
H      4.645766    2.393470    1.218363
