49

C     -3.272788   -1.226108   -0.087896
C     -5.427525    1.379039    0.887279
C      7.665525   -1.913177    0.019017
C      7.977766   -1.039640    1.021148
C      6.400653   -2.053045   -0.458046
C      6.966572   -0.279485    1.558794
C      1.054674   -1.109983   -0.856675
C     -1.129048    1.634060    1.473404
C     -0.300665   -1.009769   -1.102301
C     -2.599644    1.294117    1.475456
C     -3.758308    1.155760   -2.507226
C     -2.825308    0.062946   -2.102864
C      0.955421    0.503887    0.823739
C      4.027984   -1.336478   -0.320782
C     -0.428022    0.626686    0.594647
C      5.318716   -1.299854    0.053887
C      1.696147   -0.377248    0.084376
C     -1.074322   -0.113865   -0.355815
C      5.661230   -0.444380    1.044801
C      3.140469   -0.537753    0.290209
C     -3.017767    1.261625    0.024737
C     -4.883233    1.341284   -1.520354
C     -2.543712   -0.011944   -0.625211
N     -4.445365    1.327965   -0.153935
O     -6.070161    1.490330   -1.865947
S      4.095720    0.330355    1.453976
H     -4.338025   -1.095198   -0.302225
H     -2.928104   -2.091463   -0.714486
H     -3.017831   -1.465852    0.942752
H     -5.569667    0.374951    1.380456
H     -6.409755    1.634610    0.466153
H     -5.191265    2.089187    1.706642
H      8.472747   -2.540627   -0.432033
H      8.965569   -0.940826    1.382821
H      6.247407   -2.766995   -1.250473
H      7.066378    0.432977    2.335857
H      1.636607   -1.821060   -1.457569
H     -0.680813    1.574160    2.484709
H     -0.987700    2.659776    1.066851
H     -0.807773   -1.592994   -1.850398
H     -3.195925    1.966379    2.089784
H     -2.686827    0.274922    1.951691
H     -3.194360    2.130963   -2.487229
H     -4.133972    1.024139   -3.520514
H     -1.847083    0.252853   -2.618095
H     -3.153866   -0.942620   -2.498493
H      1.440973    1.101540    1.581628
H      3.645680   -2.016329   -1.137017
H     -2.517404    2.102184   -0.506498
