46

C     -1.865306    1.882846    1.140100
C     -4.309158   -1.869554    0.026107
C      6.569728   -0.570525   -0.644685
C      5.938489   -0.568189    0.577269
C      5.820168   -0.319763   -1.763321
C      4.581648   -0.318321    0.666406
C      4.473999   -0.069746   -1.696605
C      1.821347    1.028621   -1.269645
C     -0.425068   -0.793913    1.831434
C      0.470062    1.287502   -1.186923
C     -1.908007   -0.757324    1.718298
C     -3.815819    1.859384   -0.807647
C     -2.374019    1.525999   -1.211541
C      1.665887   -0.388037    0.642888
C      3.831446   -0.066704   -0.459780
C      2.418497    0.192050   -0.356072
C      0.313368   -0.148345    0.751162
C     -0.250224    0.704298   -0.194041
C     -2.290211   -0.444966    0.304114
C     -4.438735    0.613718   -0.258361
C     -1.727561    0.920918   -0.017085
N     -3.685503   -0.558176    0.021918
O     -5.684538    0.587552   -0.029238
H     -2.858012    1.817705    1.625715
H     -1.790024    2.914130    0.733590
H     -1.032167    1.775058    1.866743
H     -5.402011   -1.789307    0.216833
H     -4.206079   -2.340838   -0.989054
H     -3.866319   -2.559640    0.743793
H      7.637636   -0.765952   -0.728236
H      6.542069   -0.769600    1.471652
H      6.314927   -0.321618   -2.721843
H      4.089788   -0.318858    1.645410
H      3.906475    0.124549   -2.590270
H      2.435887    1.482722   -2.059640
H     -0.062577   -0.391916    2.818783
H     -0.121682   -1.881911    1.833269
H     -0.010263    1.943949   -1.900183
H     -2.356762   -1.724036    2.082342
H     -2.282330    0.011698    2.440767
H     -3.803913    2.662822   -0.057100
H     -4.415586    2.133803   -1.703112
H     -1.898382    2.519319   -1.397133
H     -2.368410    0.876435   -2.109408
H      2.165903   -1.038180    1.341292
H     -1.748661   -1.171149   -0.348962
