52

C     -2.684270   -1.082861    1.352895
C     -5.903028    1.636020    0.698088
C     -1.692976    1.713625    1.172365
C      4.692549   -0.951223    0.626809
C      8.575377    0.123196   -0.444866
C      0.370863   -0.319391   -1.987202
C     -0.874133   -0.746006   -1.556129
C      7.487992    0.662326   -1.069064
C     -3.170937    1.708068    1.009959
C      3.619866   -0.385295   -0.026456
C     -4.920623   -1.878206   -0.456056
C     -3.523760   -1.599450   -0.870025
C      7.081310   -1.151356    0.915047
C      0.262840    1.413463   -0.370639
C     -0.987628    0.985151    0.062487
C      5.977078   -0.597464    0.274124
C      8.368817   -0.797265    0.562084
C      0.944065    0.777520   -1.382205
C     -1.559743   -0.113947   -0.545168
C      6.199740    0.325187   -0.734778
C     -3.712196    0.728453    0.034380
C      3.858784    0.534334   -1.031568
C     -5.581075   -0.834438    0.328659
C     -2.876630   -0.526066   -0.054282
F      9.442211   -1.344184    1.194457
N      5.119320    0.848011   -1.340831
N     -5.091588    0.474759    0.355976
O     -6.604300   -1.120468    0.987847
S      2.543368    1.323677   -1.937559
H     -3.349605   -0.541046    2.079198
H     -2.987856   -2.147222    1.424081
H     -1.625352   -1.042457    1.673992
H     -5.559970    2.074823    1.642217
H     -5.751661    2.375959   -0.134370
H     -6.967900    1.350997    0.754088
H     -1.339038    2.774133    1.121657
H     -1.349326    1.339831    2.166593
H      4.505428   -1.662865    1.404534
H      9.605235    0.388884   -0.707888
H      0.889386   -0.846945   -2.795983
H     -1.296644   -1.607703   -2.049499
H      7.640443    1.381151   -1.855689
H     -3.633735    1.522603    2.023366
H     -3.564069    2.723585    0.720991
H      2.598435   -0.649435    0.235107
H     -5.588793   -2.073312   -1.348185
H     -5.014796   -2.835716    0.137991
H     -2.927186   -2.530845   -0.727333
H     -3.518586   -1.401031   -1.957861
H      6.877291   -1.870712    1.700788
H      0.698482    2.289581    0.127045
H     -3.701478    1.181576   -0.992371
