46

C     -2.031189    0.258441    1.911974
C     -4.568686   -1.824225    0.368497
C      1.900539    1.517536    0.150470
C      4.574948    1.406310   -0.841911
C     -0.381133   -2.034013   -0.143157
C      0.512119    1.556315    0.326031
C      5.944282    1.436802   -1.023965
C     -1.857969   -1.956954   -0.073666
C     -3.755994    1.899275    0.609625
C     -2.364653    1.798027   -0.032696
C      1.733224   -0.823017   -0.213391
C      4.684661   -0.801214    0.074673
C      2.502755    0.307561   -0.121762
C      3.951316    0.302188   -0.299710
C      0.339784   -0.760915   -0.033205
C     -0.286909    0.421104    0.236825
C      6.666209    0.326895   -0.645128
C      6.038343   -0.779596   -0.101402
C     -2.425514   -0.601537   -0.321432
C     -4.465212    0.619241    0.504564
C     -1.726710    0.515073    0.430625
Cl     8.398707    0.321851   -0.856682
Cl     6.991739   -2.158050    0.361113
N     -3.811366   -0.605616    0.179656
O     -5.724240    0.638157    0.719821
H     -2.190700    1.197557    2.463252
H     -1.137434   -0.226972    2.392922
H     -2.869496   -0.452690    2.047227
H     -5.623180   -1.597082    0.110234
H     -4.195537   -2.657769   -0.243887
H     -4.590828   -2.111240    1.460687
H      2.462212    2.451732    0.236063
H      3.993467    2.271487   -1.133721
H     -0.037088   -2.666266    0.730560
H     -0.009146   -2.604688   -1.031918
H      0.020842    2.483094    0.545181
H      6.407666    2.318283   -1.452515
H     -2.267005   -2.399542    0.862872
H     -2.262828   -2.619539   -0.895200
H     -4.279537    2.698318    0.006132
H     -3.696306    2.302874    1.640513
H     -2.560947    1.689367   -1.129356
H     -1.872700    2.718376    0.248836
H      2.221363   -1.758297   -0.426966
H      4.130537   -1.633936    0.492728
H     -2.482402   -0.382708   -1.421749
