52

C     -2.631354   -0.790762   -1.555872
C     -5.807487    1.681497   -0.098480
C     -1.656580    2.016799    0.310813
C      4.471834   -0.164747   -1.002975
C      8.420316    0.351107    0.040479
C      0.488236   -1.382845    1.674601
C     -0.752891   -1.546892    1.066832
C      7.426851    0.384634    1.008829
C     -2.931941    1.724422   -0.445872
C      3.524894   -0.122971   -0.005819
C     -4.884722   -2.038315   -0.142725
C     -3.501758   -1.934577    0.406618
C      6.789838   -0.028461   -1.645662
C      0.276593    0.953027    1.369486
C     -0.970249    0.797858    0.758099
C      5.798496    0.006558   -0.667675
C      8.110783    0.145284   -1.287729
C      0.998043   -0.122501    1.822566
C     -1.498179   -0.488314    0.603226
C      6.095709    0.211895    0.665793
C     -3.615485    0.580204    0.271443
C      3.833911    0.082822    1.322635
C     -5.639333   -0.769714   -0.101636
C     -2.827901   -0.661452   -0.048471
F      9.089322    0.114577   -2.224231
N      5.144923    0.248127    1.623967
N     -5.011713    0.493454    0.025267
O     -6.910697   -0.862813   -0.187377
S      2.577686    0.131137    2.592249
H     -3.477838   -0.368351   -2.113496
H     -1.645108   -0.358756   -1.847236
H     -2.576139   -1.877840   -1.852910
H     -6.813255    1.542662    0.379314
H     -6.035412    1.948162   -1.163423
H     -5.371271    2.571874    0.385971
H     -0.991112    2.711711   -0.254011
H     -1.958523    2.589825    1.234859
H      4.232984   -0.325976   -2.046234
H      9.456027    0.488934    0.333275
H      1.038232   -2.245367    2.023644
H     -1.159174   -2.546936    0.948776
H      7.651516    0.545477    2.059394
H     -3.551447    2.622203   -0.533608
H     -2.621398    1.432197   -1.478143
H      2.482204   -0.256867   -0.263893
H     -5.426847   -2.826092    0.451341
H     -4.922231   -2.399082   -1.198062
H     -3.523293   -2.046040    1.506679
H     -2.904080   -2.770999   -0.057959
H      6.513863   -0.193910   -2.693823
H      0.667919    1.978690    1.478119
H     -3.472758    0.775441    1.368877
