71

C      5.129466    1.533308    1.127919
C      8.329573    0.053816   -0.447102
C     -7.451333    3.986526    0.551195
C     -6.612998   -2.918101    0.844905
C     -6.454680    3.454698    1.339734
C     -7.680500    3.444369   -0.695415
C     -5.703007   -2.156012    1.533319
C     -7.034264   -2.523212   -0.408951
C     -2.010735   -1.904372   -2.375094
C     -5.690775    2.380684    0.875720
C     -6.910759    2.377030   -1.138983
C     -5.210510   -0.985668    0.957922
C     -6.540424   -1.358607   -0.974674
C     -0.706690   -1.721432   -1.924710
C     -3.037037   -1.062247   -1.971236
C      1.198589   -0.008844    0.647659
C      4.501901   -1.095665   -1.817844
C      2.501456    0.165534    1.117217
C      5.714191   -0.289624   -1.398476
C      6.448039   -0.660041    2.807558
C      5.045400   -0.597211    2.316031
C      2.085938   -0.859904   -1.351789
C     -1.425299    0.123012   -0.676818
C     -5.908602    1.829931   -0.365839
C     -5.627348   -0.592047   -0.286256
C     -0.390725   -0.696269   -1.061332
C      0.979563   -0.530442   -0.608557
C      3.381556   -0.691572   -0.897026
C     -2.740178   -0.034676   -1.110150
C      3.602870   -0.175869    0.345110
C      5.960889   -0.581261    0.059296
C      7.440756   -0.040974    1.914608
C     -5.104663    0.677691   -0.887454
C      4.932767    0.051916    0.942227
N     -3.701142    0.870269   -0.630228
N      7.261321   -0.184482    0.509315
O      8.439384    0.608441    2.336446
H      4.533791    2.077156    0.358834
H      6.165732    1.867184    1.015533
H      4.781767    1.802223    2.146534
H      8.542460   -0.865916   -1.046565
H      8.051072    0.830661   -1.191712
H      9.246616    0.372623    0.116340
H     -8.056761    4.823184    0.895492
H     -6.985311   -3.823303    1.305418
H     -6.291062    3.895941    2.316634
H     -8.451596    3.841708   -1.328206
H     -5.332091   -2.415501    2.527083
H     -7.753605   -3.162627   -0.906966
H     -2.234335   -2.725202   -3.059448
H     -4.920484    1.989614    1.515382
H     -7.128283    1.987566   -2.121923
H     -4.492641   -0.364369    1.473585
H     -6.889684   -1.067233   -1.969582
H      0.099529   -2.372602   -2.234038
H     -4.054225   -1.221027   -2.343558
H      0.343763    0.258026    1.251609
H      4.244320   -0.962583   -2.870413
H      4.732650   -2.168436   -1.573220
H      2.581568    0.579321    2.109999
H      6.606750   -0.524527   -1.996967
H      5.416387    0.788488   -1.466437
H      6.485579   -0.075820    3.773574
H      6.769211   -1.704862    3.091766
H      4.327867   -0.165595    3.041032
H      4.696600   -1.660247    2.161085
H      1.897008   -1.274114   -2.350075
H     -1.172468    0.938458    0.010343
H      5.886681   -1.693658    0.217049
H     -5.243280    0.610723   -1.985506
H     -3.415515    1.696050   -0.080922
