52

C     -4.212502    0.752496   -0.262627
C     -4.209565   -3.130491    0.119729
C      6.897517   -1.112914    0.253994
C      6.923165    0.183490    0.714840
C      5.690055   -1.633666   -0.144784
C     -2.099631    0.163975    1.911382
C      5.765371    2.229078    1.228158
C      0.083803    2.413924   -0.950345
C     -1.024810    1.668279   -1.333162
C     -2.833221   -1.041469    1.403258
C      4.571125    2.958541    1.271767
C     -2.467128   -1.394216   -2.776413
C     -3.135223   -0.111728   -2.255639
C     -0.237745    1.687647    1.268551
C      5.751246    0.928663    0.767945
C     -1.362328    0.930907    0.882752
C      0.474357    2.421082    0.351435
C     -1.746423    0.932062   -0.436626
C      4.519202   -0.888070   -0.091342
C     -2.660354   -1.200602   -0.063847
C      3.378349    2.411654    0.866416
C     -3.208322   -2.495670   -2.050038
C      4.535489    0.413264    0.369567
C     -2.917397    0.125931   -0.808554
F      3.333727   -1.428390   -0.493084
N      3.386987    1.143249    0.421525
N     -3.365355   -2.281962   -0.661229
O     -3.633276   -3.497173   -2.655823
S      1.895807    3.356660    0.934512
H     -3.980890    1.589487    0.430350
H     -4.811086    1.200051   -1.086317
H     -4.860578   -0.022444    0.201450
H     -5.033077   -2.596010    0.632547
H     -4.561712   -4.018986   -0.442782
H     -3.572324   -3.551304    0.951137
H      7.794446   -1.727156    0.197899
H      7.868739    0.628540    1.040240
H      5.691850   -2.656081   -0.504298
H     -1.337816   -0.222269    2.658368
H     -2.742655    0.821721    2.539673
H      6.698955    2.670663    1.550192
H      0.660100    2.999883   -1.657107
H     -1.276185    1.705195   -2.362271
H     -3.908711   -1.039715    1.709532
H     -2.441350   -1.999011    1.864517
H      4.566382    3.979863    1.630395
H     -1.398756   -1.416609   -2.572138
H     -2.753238   -1.480800   -3.833747
H     -4.236356   -0.345684   -2.398046
H     -2.955310    0.731606   -2.918961
H      0.059617    1.679363    2.322360
H     -1.562962   -1.434857   -0.224093
