37

C     -2.650536   -2.615829   -0.567756
C     -4.524020   -0.596043    0.303117
C     -2.863283    1.058654    0.046286
C     -5.321898    0.371174    0.921934
C     -3.631077    2.015522    0.649111
C      5.714004    1.100599   -1.427249
C      4.430230    0.831666   -1.854524
C      5.137635    0.550971    0.814753
C      1.614480   -0.397095    0.833936
C     -2.333683   -1.166244   -0.809520
C     -3.276343   -0.248101   -0.141511
C     -4.887207    1.668672    1.097724
C      6.068580    0.963964   -0.112353
C      3.836747    0.277805    0.385454
C      2.889932   -0.134767    1.286035
C      3.464702    0.411230   -0.937820
C      1.338659   -0.236374   -0.497822
C      0.020065   -0.496245   -1.029518
Cl    -5.871034    2.899876    1.871623
F      7.326552    1.227003    0.309105
N     -1.017939   -0.924114   -0.181394
O      3.219217   -0.258889    2.491472
O     -0.200152   -0.340189   -2.249766
O      2.258626    0.160973   -1.352852
H     -2.535793   -2.866473    0.504182
H     -3.626809   -2.920477   -0.975900
H     -1.883568   -3.211126   -1.107562
H     -4.858294   -1.611779    0.162891
H     -1.866332    1.374461   -0.298363
H     -6.308755    0.084460    1.270379
H     -3.256623    3.020165    0.768769
H      6.473710    1.426770   -2.122157
H      4.130951    0.932197   -2.880341
H      5.340059    0.421902    1.855129
H      0.875932   -0.723916    1.564733
H     -2.302625   -0.969224   -1.880001
H     -0.924110   -1.081179    0.852353
