71

C     -5.699820   -1.287896    0.759970
C     -7.295772    1.877352    2.081648
C      6.084864   -2.790117    2.152960
C      7.454054    3.555756   -0.711434
C      6.641762   -2.898638    0.886989
C      5.196916   -1.780160    2.431163
C      7.680133    2.565728   -1.637991
C      6.403602    3.345496    0.181052
C      2.010455   -2.864664   -1.680591
C      6.338509   -2.022792   -0.122122
C      4.878646   -0.889183    1.431475
C      6.959044    1.410581   -1.741897
C      5.653598    2.181214    0.099007
C      0.710462   -2.489370   -1.426480
C      3.003847   -1.894812   -1.475722
C     -2.001335   -1.544273   -1.507770
C     -3.092564    1.176396    1.500983
C     -3.337457   -1.309148   -1.327309
C     -4.540535    1.303532    1.810111
C     -6.954053    0.947205   -1.577208
C     -5.986903   -0.204241   -1.426959
C     -1.467634   -0.054706    0.202298
C      1.381001   -0.284286   -0.795387
C      5.432356   -0.995858    0.170692
C      5.909085    1.211929   -0.841528
C      0.403035   -1.210841   -0.988508
C     -1.016229   -0.931802   -0.756694
C     -2.828457    0.205062    0.408585
C      2.690929   -0.630798   -1.041201
C     -3.764809   -0.421105   -0.355837
C     -5.355946    1.160993    0.559893
C     -7.639555    1.123843   -0.266764
C      5.098008   -0.045080   -0.924857
C     -5.200449   -0.148108   -0.143178
N      3.707609    0.314869   -0.838222
N     -6.768035    1.400092    0.823968
O     -8.882163    1.035882   -0.137224
H     -6.516323   -0.974067    1.408772
H     -6.109362   -2.116109    0.111414
H     -4.866994   -1.742553    1.328824
H     -6.555534    1.855893    2.878533
H     -8.232498    1.305297    2.344918
H     -7.670297    2.925542    1.910837
H      6.332747   -3.495731    2.959857
H      8.063992    4.443477   -0.686265
H      7.331031   -3.702661    0.713308
H      4.734522   -1.655486    3.406959
H      8.513581    2.754130   -2.331405
H      6.209100    4.107566    0.914280
H      2.281255   -3.856217   -2.022735
H      6.771454   -2.098338   -1.126756
H      4.185442   -0.103475    1.646514
H      7.162522    0.649062   -2.485255
H      4.834801    2.030078    0.801440
H     -0.053646   -3.244213   -1.587025
H      4.007206   -2.231165   -1.697463
H     -1.682528   -2.240981   -2.272679
H     -2.635990    2.147627    1.184255
H     -2.473117    0.841565    2.367164
H     -4.107682   -1.799217   -1.914231
H     -4.714786    2.358785    2.172467
H     -4.809804    0.647151    2.634724
H     -7.670261    0.739909   -2.392695
H     -6.350736    1.855663   -1.756544
H     -6.586683   -1.133144   -1.424695
H     -5.320295   -0.285835   -2.315489
H     -0.688795    0.431992    0.800634
H      1.077334    0.702724   -0.451163
H     -5.028981    1.960327   -0.142164
H      5.341770   -0.510617   -1.910977
H      3.421358    1.314971   -0.616289
