50

C     -2.015829   -0.112229   -1.914300
C     -4.967009   -1.871308   -0.955769
C      6.225502    1.170101   -1.260925
C      6.986389    0.034601   -1.468908
C      5.256569    1.209384   -0.264946
C      6.784736   -1.069361   -0.683609
C     -1.719666   -1.261620    1.823731
C      1.115112    1.605622    0.363907
C     -0.108328    1.470140   -0.258090
C     -2.661506   -1.634676    0.697034
C     -4.431054    1.898746   -0.607934
C     -2.936035    1.849339   -0.764359
C      0.457765   -0.120064    1.907702
C     -0.766091   -0.245920    1.274515
C      1.383084    0.795720    1.454054
C      5.050058    0.101964    0.527234
C     -1.053333    0.547097    0.191327
C      5.825706   -1.025735    0.299715
C     -3.292054   -0.349048    0.226459
C     -5.091394    0.638085   -1.069551
C      4.181454   -0.148297    1.568447
C     -2.333349    0.499421   -0.566144
N      5.400815   -1.930090    1.215445
N      4.441881   -1.416317    1.954309
N     -4.456798   -0.573846   -0.603880
O     -6.097600    0.599437   -1.790074
S      2.959471    0.948600    2.280225
H     -1.136590   -0.790038   -1.823780
H     -1.745821    0.733535   -2.601095
H     -2.860480   -0.625990   -2.374134
H     -5.457118   -2.298887   -0.046208
H     -5.677704   -1.759899   -1.798588
H     -4.117192   -2.489353   -1.298622
H      6.372823    2.047862   -1.871674
H      7.744657    0.039032   -2.266576
H      4.659930    2.081173   -0.092199
H      7.386694   -1.942505   -0.861209
H     -1.189371   -2.141172    2.240408
H     -2.330162   -0.735847    2.587941
H      1.866428    2.294139    0.058114
H     -0.308239    2.110756   -1.112798
H     -3.462742   -2.313928    1.018130
H     -2.028799   -2.096885   -0.100252
H     -4.713075    2.089561    0.469111
H     -4.853799    2.759634   -1.170196
H     -2.661946    2.322718   -1.728548
H     -2.505366    2.527584    0.025776
H      0.678303   -0.751208    2.764640
H     -3.604188    0.222120    1.114575
H      5.805257   -2.892145    1.291167
