52

C     -3.006424   -1.915693    0.666011
C     -4.652677    0.796466    2.309716
C      7.087299    1.190581    1.942244
C      6.432605    1.929572    0.976667
C      6.887985   -0.174045    2.047980
C     -0.797677    0.367046    1.000397
C      4.924198    2.072192   -0.855756
C      0.081541   -1.386421   -2.720511
C     -1.213239   -1.412954   -2.203506
C     -2.051592    1.226152    0.875398
C      4.068310    1.445941   -1.717681
C     -5.234173   -0.634967   -1.136208
C     -3.852807   -1.095125   -1.458674
C      0.819302   -0.212559   -0.812986
C      5.571113    1.319278    0.104057
C     -0.478284   -0.239741   -0.295934
C      1.108808   -0.786195   -2.030043
C     -1.508641   -0.839790   -0.984819
C      6.019243   -0.774013    1.164138
C     -3.180951    0.542369    0.223373
C      3.887852    0.085853   -1.590626
C     -5.446814   -0.277669    0.282031
C      5.360434   -0.033025    0.193158
C     -2.848768   -0.818356   -0.359732
F      5.768703   -2.115851    1.203127
N      4.522654   -0.648974   -0.649789
N     -4.379829    0.388994    0.983996
O     -6.534460   -0.553853    0.848794
S      2.788226   -0.746664   -2.690989
H     -2.991359   -1.526878    1.702119
H     -2.098837   -2.572811    0.572311
H     -3.865000   -2.556774    0.450974
H     -3.793505    0.868917    2.987248
H     -5.145051    1.791644    2.293837
H     -5.385054    0.115517    2.836276
H      7.757993    1.676568    2.618854
H      6.617416    2.994362    0.929049
H      7.389747   -0.783554    2.798847
H      0.040063    1.043797    1.328986
H     -0.891590   -0.375170    1.830713
H      5.061849    3.139462   -0.960172
H      0.297091   -1.832906   -3.663454
H     -2.025525   -1.887858   -2.750032
H     -1.706016    2.138104    0.300393
H     -2.241544    1.610773    1.898199
H      3.523594    1.974648   -2.499407
H     -5.937303   -1.467020   -1.432487
H     -5.547762    0.238089   -1.741398
H     -3.817115   -2.178641   -1.763204
H     -3.525531   -0.538998   -2.384060
H      1.617583    0.271521   -0.242876
H     -3.476076    1.158657   -0.682093
