52

C     -3.052262   -0.115003   -1.599459
C     -5.672493    1.816851    0.300555
C      0.869043   -1.356278   -0.173296
C      3.432537    0.521151    1.654161
C     -1.455613    1.936745    1.103761
C     -0.502555   -1.370859   -0.327265
C      4.794188    0.607180    1.854532
C     -2.881529    1.981534    0.593996
C     -4.790352   -1.869931   -0.155317
C     -3.362209   -1.761853    0.275084
C      7.957951   -0.176003    0.068033
C      7.389228   -0.934487   -1.078909
C      0.672144    0.798643    0.805264
C      3.794646   -0.795826   -0.266869
C      1.457357   -0.258010    0.399347
C      2.908440   -0.181492    0.590485
C     -0.714965    0.757475    0.637271
C     -1.326477   -0.337679    0.063620
C      5.688229   -0.004564    1.001452
C      5.155237   -0.704914   -0.059360
C     -3.491639    0.619670    0.695538
C     -5.550979   -0.627751    0.059593
C     -2.772666   -0.418289   -0.129265
N     -4.885342    0.607114    0.357220
O     -6.806021   -0.684051   -0.026342
O      7.049130    0.032369    1.129445
O      6.048785   -1.320240   -0.917782
H     -3.272542    0.957257   -1.766950
H     -3.885846   -0.687274   -2.004336
H     -2.159216   -0.343001   -2.223796
H     -6.042111    2.143385    1.291744
H     -5.109859    2.632678   -0.198841
H     -6.582432    1.658215   -0.344468
H      1.517941   -2.164743   -0.478708
H      2.754760    1.017943    2.349586
H     -1.500367    1.963526    2.211302
H     -0.947013    2.875378    0.763651
H     -0.931295   -2.233247   -0.774018
H      5.198206    1.168852    2.703979
H     -2.952472    2.437445   -0.401195
H     -3.440820    2.646532    1.288264
H     -4.900559   -2.265204   -1.207883
H     -5.250204   -2.689255    0.473691
H     -2.817946   -2.617307   -0.119114
H     -3.370743   -1.742692    1.404408
H      8.806466   -0.771140    0.489655
H      8.396238    0.787565   -0.269329
H      7.434036   -0.289159   -2.003078
H      7.973986   -1.849317   -1.321887
H      1.153352    1.649848    1.251794
H      3.369122   -1.348956   -1.105060
H     -3.392497    0.301169    1.769303
