45

C     -2.057530   -1.683129   -0.631001
C     -3.849206    1.451438    2.091614
C      6.029121    0.356178    0.599940
C      4.653364    0.316266    0.596250
C      1.872904    0.316477   -1.732932
C     -0.154758   -0.937335    1.820159
C      0.482694    0.241434   -1.686867
C     -1.607102   -0.616277    1.899561
C     -3.833565    0.203255   -1.537859
C     -2.356627    0.591952   -1.569656
C      6.690494    0.102187   -0.585752
C      1.886801   -0.427564    0.536786
C      4.718641   -0.215788   -1.724707
C      2.569288   -0.020980   -0.612837
C      0.505691   -0.496688    0.565964
C      4.014295    0.028924   -0.573954
C     -0.189441   -0.155068   -0.566616
C     -2.031592    0.343861    0.839988
C     -4.304871    0.487402   -0.143097
C     -1.655966   -0.226618   -0.538644
N      6.057656   -0.179069   -1.730348
N     -3.390332    0.749844    0.910245
O     -5.541328    0.491072    0.088830
H     -1.213618   -2.350497   -0.301941
H     -2.248596   -1.949980   -1.690821
H     -2.981989   -1.900244   -0.059789
H     -3.782254    0.828164    2.995769
H     -3.161279    2.341026    2.197026
H     -4.857508    1.897652    1.944930
H      6.527569    0.584306    1.529539
H      4.120471    0.517232    1.536390
H      2.404893    0.629483   -2.617073
H      0.352491   -0.483228    2.706718
H      0.008022   -2.048143    1.950031
H      0.001572    0.525875   -2.617835
H     -1.884575   -0.151654    2.890294
H     -2.224681   -1.542858    1.843024
H     -4.351313    0.850690   -2.255294
H     -3.975146   -0.854176   -1.797874
H     -2.306029    1.660270   -1.273141
H     -2.002691    0.450240   -2.607984
H      7.785510    0.143856   -0.540581
H      2.478345   -0.688724    1.410319
H      4.192860   -0.447066   -2.664653
H     -1.390687    1.266003    0.960012
