50

C     -2.703942   -0.091669   -1.715557
C     -5.626684   -0.514698    1.082525
C      6.169775    0.399240   -1.561476
C      4.887936    0.720269   -1.953200
C      4.494624   -1.336056    2.593168
C      6.364141   -0.184250   -0.330913
C      5.560829   -1.063906    1.763588
C      3.825878    0.449343   -1.101441
C      3.215476   -1.010192    2.194679
C      1.220493    1.233920    0.299616
C     -1.711770   -1.876682    0.219874
C     -0.089222    1.492723   -0.039315
C     -3.041501   -1.428504    0.723302
C     -3.947594    2.650740   -0.199576
C     -2.844416    2.104758   -0.632925
C      0.624089   -1.028944    0.580323
C      5.327369   -0.466292    0.539316
C      1.588079   -0.044472    0.614751
C     -0.684161   -0.771274    0.242142
C      4.022449   -0.140907    0.145638
C      2.967427   -0.413843    0.978128
C     -1.043698    0.517549   -0.073707
C     -3.236543    0.050029    0.717431
C     -4.898471    1.838401    0.541449
C     -2.481232    0.724463   -0.432664
N     -4.603545    0.454409    0.782134
O     -5.952363    2.353195    0.955446
H     -3.225293    0.594437   -2.442371
H     -3.417926   -0.883147   -1.496957
H     -1.751466   -0.459199   -2.143828
H     -5.209297   -1.352903    1.656880
H     -6.366727    0.015283    1.751210
H     -6.132837   -0.844600    0.143937
H      7.026310    0.590650   -2.188643
H      4.671491    1.181459   -2.911005
H      4.646472   -1.811573    3.573739
H      7.364359   -0.432867   -0.030036
H      6.564691   -1.294599    2.024176
H      2.808654    0.674917   -1.384769
H      2.373620   -1.216091    2.830672
H      1.938190    2.048717    0.318667
H     -1.315185   -2.633411    0.959453
H     -1.725841   -2.405171   -0.748783
H     -0.406055    2.518124   -0.294809
H     -3.833191   -1.992244    0.153985
H     -3.215434   -1.764133    1.789412
H     -4.165742    3.723131   -0.390144
H     -2.167252    2.762799   -1.191406
H      0.882366   -2.073036    0.828728
H     -2.747330    0.436109    1.661206
