52

C     -3.050553    1.365029   -1.486324
C     -5.747590   -1.434450   -0.495694
C      0.989965    0.961698    0.659606
C      3.261776   -1.712163   -0.306095
C     -1.706215   -1.415364   -1.719067
C     -0.363606    1.225983    0.640885
C      4.625314   -1.977519   -0.315477
C     -3.070466   -1.517951   -1.122285
C     -4.579716    1.731351    1.196889
C     -3.112469    1.745129    0.901960
C      7.912886   -0.322954    0.276961
C      7.489689    1.103334    0.071666
C      0.572466   -0.835701   -0.861163
C      3.788585    0.594499    0.042303
C      1.462901   -0.090694   -0.107959
C      2.874105   -0.410876   -0.124319
C     -0.782033   -0.577896   -0.885257
C     -1.237705    0.472319   -0.116489
C      5.580010   -0.991921   -0.150894
C      5.143466    0.303373    0.028993
C     -3.392384   -0.557215   -0.048373
C     -5.379593    0.859001    0.325784
C     -2.678341    0.759808   -0.132611
N     -4.852004   -0.379882   -0.073670
O     -6.544280    1.201229   -0.076916
O      6.929863   -1.242665   -0.158463
O      6.105573    1.288630    0.193831
H     -2.245580    2.026783   -1.870159
H     -3.946714    2.007304   -1.352829
H     -3.340547    0.582681   -2.212340
H     -5.287911   -2.416179   -0.572245
H     -6.184204   -1.160925   -1.497129
H     -6.584994   -1.513994    0.227381
H      1.683090    1.555980    1.257479
H      2.583552   -2.540019   -0.441729
H     -1.257397   -2.431805   -1.734279
H     -1.704681   -1.077116   -2.783063
H     -0.689854    2.057192    1.254306
H      4.994388   -2.988340   -0.455196
H     -3.812306   -1.420955   -1.956608
H     -3.259564   -2.554900   -0.711191
H     -4.784880    1.439840    2.269291
H     -5.033233    2.763688    1.123607
H     -2.581836    1.646400    1.869718
H     -2.860930    2.764842    0.531516
H      8.870301   -0.563224   -0.225685
H      8.046858   -0.480579    1.366839
H      7.907720    1.462036   -0.886072
H      7.962765    1.738009    0.877076
H      0.925962   -1.676823   -1.478844
H      3.528220    1.635201    0.188732
H     -3.167868   -0.999228    0.941812
