45

C     -1.526591   -1.151238   -1.409399
C     -4.307668    1.059734   -1.669749
C      7.020068    0.507877   -1.014292
C     -0.720189    2.059015    0.401163
C      1.733337   -1.227759    1.419753
C      0.452008   -1.456459    0.914219
C     -1.895062    1.719075   -0.455565
C     -3.847096   -1.763426    0.884194
C     -2.364905   -1.860020    0.761598
C      7.341711    0.636429    0.313102
C      5.690630    0.313785   -1.332127
C      1.376970    1.089175    1.246842
C      0.099195    0.867398    0.742624
C      2.217946    0.051884    1.594757
C     -0.365062   -0.416585    0.575760
C     -2.582996    0.499886    0.103863
C     -4.487735   -1.000441   -0.215995
C      5.071732    0.380589    0.928511
C     -1.719513   -0.722296    0.042279
N      6.360655    0.570205    1.258697
N      4.734715    0.252374   -0.362969
N     -3.809366    0.204768   -0.621053
O     -5.542528   -1.340485   -0.782489
S      3.861787    0.308683    2.243804
H     -2.516411   -1.307991   -1.908677
H     -0.892432   -0.448981   -1.970912
H     -1.051448   -2.160281   -1.371342
H     -4.414178    2.078259   -1.264298
H     -5.299693    0.688343   -1.972620
H     -3.596031    1.083816   -2.527466
H      7.772034    0.555252   -1.790820
H     -0.104977    2.877340   -0.026999
H     -1.110540    2.452697    1.381168
H      2.360065   -2.070056    1.679954
H      0.085314   -2.479971    0.782559
H     -2.636075    2.562915   -0.359818
H     -1.671879    1.632425   -1.528756
H     -4.128824   -1.288190    1.843275
H     -4.272165   -2.806018    0.819219
H     -1.938683   -1.939876    1.797003
H     -2.081961   -2.833533    0.272770
H      8.380657    0.789404    0.581689
H      5.436730    0.211684   -2.389635
H      1.762889    2.095701    1.386392
H     -2.874441    0.724896    1.138387
