33

C      4.905209    1.389859   -0.126850
C      2.364275   -1.884504    0.994211
C     -1.874825    1.726005   -1.072115
C      1.007261   -1.674550    1.098121
C     -1.196669    0.405934   -1.465961
C      3.194616   -0.844450    0.635434
C     -3.204021    1.209288   -0.659386
C     -0.985910   -0.200500    0.960103
C      1.346207    0.606264    0.482842
C      0.476973   -0.427534    0.844430
C     -1.707048   -0.484565   -0.357749
C      2.706277    0.423240    0.371721
C     -3.117836   -0.040879   -0.254205
C     -4.206483   -0.886415    0.225346
O     -5.395009   -0.459654    0.294714
O     -4.003019   -2.197918    0.630165
O      3.518751    1.484253    0.009717
H      5.324193    2.399592    0.155688
H      5.384050    0.655048    0.542445
H      5.188025    1.247470   -1.194614
H      2.818071   -2.861832    1.188616
H     -1.931293    2.416057   -1.925737
H     -1.322471    2.136961   -0.206368
H      0.343795   -2.478260    1.377890
H     -0.116191    0.479166   -1.534631
H     -1.685197    0.068312   -2.406125
H      4.253661   -1.042958    0.563057
H     -4.108371    1.789867   -0.692237
H     -1.194220    0.803766    1.324602
H     -1.364885   -0.968872    1.696096
H      0.963220    1.595585    0.279672
H     -1.619769   -1.559667   -0.608932
H     -4.761366   -2.824108    0.897621
