45

C     -2.667248    0.622711   -1.220905
C     -4.572557   -1.782145    0.855123
C      6.895372    1.062541    1.174284
C     -0.369734   -2.282500    0.327823
C      1.554719    1.077279   -1.500614
C      0.252482    1.167849   -1.048963
C     -1.881345   -2.140960    0.160307
C     -3.170815    1.763793    1.529647
C     -1.850533    1.559592    0.881864
C      6.328661    1.964994    0.294741
C      6.548855   -0.276558    1.111557
C      1.567072   -1.165963   -0.759832
C      0.263147   -1.075549   -0.307459
C      2.241045   -0.122140   -1.356018
C     -0.402107    0.108678   -0.454863
C     -2.256326   -0.835782    0.771245
C     -4.089403    0.626014    1.448055
C      5.099833    0.223713   -0.683382
C     -1.799965    0.349666   -0.018075
N      5.444001    1.529800   -0.614976
N      5.647164   -0.646007    0.165628
N     -3.672276   -0.688672    1.022883
O     -5.286300    0.785712    1.756214
S      3.911551   -0.227808   -1.939007
H     -3.708259    0.255642   -1.095806
H     -2.728053    1.720287   -1.368160
H     -2.241429    0.202920   -2.153709
H     -5.625770   -1.470328    0.709105
H     -4.462979   -2.533728    1.664111
H     -4.275030   -2.308152   -0.098444
H      7.611202    1.397127    1.914688
H      0.017919   -3.215306   -0.078569
H     -0.189619   -2.187681    1.435201
H      2.063322    1.911644   -1.965906
H     -0.232735    2.143438   -1.193550
H     -2.080926   -2.172419   -0.947794
H     -2.415022   -2.959540    0.654376
H     -3.052847    2.034792    2.613162
H     -3.691777    2.650881    1.070363
H     -1.098440    1.368221    1.699852
H     -1.523260    2.486430    0.384389
H      6.603508    3.003502    0.350614
H      6.971334   -1.019675    1.785001
H      2.082524   -2.118579   -0.634088
H     -1.758956   -0.787732    1.779992
