54

C      2.503897    4.311697    0.969164
C      4.476149    0.235933   -2.274329
C      2.005392   -4.022271   -0.473970
C      1.613018   -3.486730   -1.805196
C      2.022564   -3.049810    0.655433
C      0.514530   -2.491985   -1.792761
C     -2.698050    1.068966   -0.725268
C      1.038487    0.431326    1.277081
C     -3.527076    2.155249   -0.824235
C      1.536753    1.713006    1.162713
C     -3.717050    0.424717    1.283512
C      2.482817   -0.298164   -0.414174
C      1.496118   -0.611677    0.492460
C     -2.775939    0.187572    0.325093
C      0.981930   -1.991383    0.602144
C     -0.106133   -2.299262   -0.425828
C     -4.492662    2.368490    0.193676
C     -4.596681    1.513265    1.245026
C      2.523684    2.013396    0.251111
C      2.992170    0.983481   -0.539793
C     -1.868449   -0.947111    0.382873
N     -0.982864   -1.165245   -0.523830
N     -5.315155    3.502937    0.068228
N     -5.530688    1.643067    2.280221
O     -1.987224   -1.805446    1.466466
O     -5.849516    4.179716    1.117343
O     -5.600664    3.955615   -1.084201
O     -5.203747    1.243267    3.546394
O     -6.665459    2.074730    2.082456
O      3.037493    3.314597    0.125618
O      3.987745    1.282214   -1.459855
H      3.043703    5.267594    0.801835
H      2.638230    4.077426    2.052599
H      1.408434    4.444035    0.820888
H      5.284172    0.661647   -2.903819
H      4.903000   -0.595768   -1.675661
H      3.654191   -0.215536   -2.886237
H      3.058307   -4.418886   -0.581170
H      1.386038   -4.932026   -0.252175
H      1.258961   -4.358785   -2.429300
H      2.524638   -3.111757   -2.355502
H      3.018210   -2.521837    0.746714
H      1.966905   -3.658606    1.605612
H      0.852677   -1.501520   -2.146591
H     -0.337508   -2.763061   -2.478564
H     -1.968180    0.943550   -1.532809
H      0.255196    0.179987    1.998019
H     -3.482672    2.862638   -1.644135
H      1.175948    2.517467    1.776008
H     -3.813679   -0.246595    2.131077
H      2.923122   -1.023907   -1.077235
H      0.411568   -2.022740    1.580693
H     -0.615991   -3.218343   -0.114844
H     -1.840665   -2.799135    1.381026
