52

C     -6.546116   -1.049031   -0.471640
C     -3.785176   -1.611311   -0.718146
C      3.034315   -0.023192    1.501090
C      5.231543    1.546709   -0.671149
C     -5.055519    1.820652    1.387273
C     -5.978108    0.961728    0.811106
C     -3.720374    1.533744    1.263191
C     -1.242740   -1.068591    0.774948
C      1.360077    2.119161   -0.394063
C      0.140818   -1.269457    0.668379
C      2.396284    1.582057   -1.332391
C      4.098922   -2.104585   -0.739217
C      2.812334   -1.907619   -0.001131
C     -0.904171    1.170949    0.127128
C     -5.533841   -0.138354    0.140665
C     -4.164708   -0.408555    0.028304
C     -1.776359    0.172116    0.499926
C      0.452946    0.979863    0.021055
C     -3.230510    0.431946    0.593720
C      0.972071   -0.256541    0.296447
C      3.017118    0.298240   -0.984699
C      5.046805   -0.943797   -0.580402
C      2.426901   -0.450106    0.180255
N      4.447784    0.339088   -0.745115
O      6.250806   -1.081771   -0.327218
H     -6.838601   -0.575821   -1.449305
H     -7.424624   -1.052873    0.216459
H     -6.177449   -2.067013   -0.601887
H     -4.425775   -1.736595   -1.636276
H     -2.759052   -1.507908   -1.110503
H     -3.826280   -2.545801   -0.109207
H      3.971691   -0.557281    1.724423
H      2.312418   -0.308716    2.295751
H      3.218743    1.044056    1.577197
H      6.182263    1.379381   -0.085112
H      5.549252    1.935990   -1.646721
H      4.718097    2.362572   -0.111421
H     -5.454000    2.680021    1.908746
H     -7.036400    1.179251    0.903376
H     -3.005987    2.206601    1.714207
H     -1.862586   -1.885977    1.072834
H      1.760808    2.645986    0.472108
H      0.700905    2.827224   -0.936862
H      0.499133   -2.278988    0.900859
H      1.913220    1.568603   -2.355482
H      3.176197    2.392639   -1.438961
H      4.666845   -2.996796   -0.377924
H      3.933581   -2.278113   -1.835097
H      2.897814   -2.436173    0.977534
H      1.968641   -2.398213   -0.567313
H     -1.313024    2.151684   -0.091637
H      2.903065   -0.391083   -1.875666
