49

C     -2.439245   -1.819207    0.968228
C     -4.580433    2.145537    0.655075
C      1.182114   -1.135265   -1.639172
C      3.921203   -0.222673   -2.168283
C     -0.563620    0.740172    1.758554
C     -0.192935   -1.232743   -1.402150
C      5.304932   -0.069574   -2.297642
C     -2.056533    0.746866    1.817234
C     -4.465924   -1.414107   -0.751375
C     -3.059058   -1.078366   -1.272558
C      1.360349    0.172296    0.336349
C      4.170633   -0.163159    0.198035
C      1.950315   -0.424576   -0.755047
C      3.384599   -0.265982   -0.912607
C     -0.016666    0.068755    0.564410
C     -0.780514   -0.642943   -0.322543
C      5.553271   -0.010096    0.074012
C      6.092608    0.033504   -1.178593
C     -2.637828    0.621669    0.450422
C     -4.945789   -0.184948   -0.056191
C     -2.222081   -0.753070   -0.084909
C      6.384337    0.098506    1.298779
F      7.448744    0.183718   -1.311751
F      7.297568   -0.930997    1.325529
F      7.009919    1.325534    1.259131
F      5.581363    0.022501    2.419514
N     -4.039494    0.838410    0.345480
O     -6.184222   -0.098338    0.156412
H     -2.494637   -2.786374    0.428350
H     -3.347222   -1.685029    1.556024
H     -1.570462   -1.891998    1.662371
H     -4.146346    2.588302    1.568827
H     -5.688885    2.169539    0.633957
H     -4.262785    2.815273   -0.195022
H      1.659999   -1.593287   -2.483655
H      3.284935   -0.305732   -3.040345
H     -0.096727    0.271916    2.671499
H     -0.230252    1.813594    1.789101
H     -0.723682   -1.809277   -2.146258
H      5.761280   -0.031656   -3.274213
H     -2.364856   -0.084393    2.496270
H     -2.467272    1.672453    2.284782
H     -5.061885   -1.653039   -1.645624
H     -4.433783   -2.287235   -0.062630
H     -2.695607   -1.995272   -1.800271
H     -3.198314   -0.221505   -1.955753
H      1.957763    0.733529    1.036838
H      3.775899   -0.194201    1.203022
H     -2.114775    1.368777   -0.201613
