52

C      6.143379    1.274167    0.994216
C      3.357019    1.264982    1.150624
C     -2.879982   -1.878736   -0.380460
C     -4.695195    1.134326    2.066948
C      5.308320   -0.944976   -1.880122
C      6.075358   -0.230831   -0.986309
C      3.929944   -0.966005   -1.821416
C      1.061165   -0.120384   -1.945454
C     -0.891336   -0.784775    1.804273
C     -0.315806   -0.165001   -1.864451
C     -2.250475   -0.190283    1.917200
C     -4.643818   -0.121516   -1.556719
C     -3.154850    0.101592   -1.766094
C      1.135201   -0.502880    0.378899
C      5.370753    0.470617   -0.017077
C      3.994153    0.466873    0.064191
C      1.825086   -0.293136   -0.795066
C     -0.238776   -0.550812    0.480571
C      3.285625   -0.255454   -0.843853
C     -0.971927   -0.376933   -0.671949
C     -2.802160    0.395864    0.664485
C     -5.115154    0.498991   -0.286900
C     -2.450627   -0.430064   -0.550306
N     -4.196228    0.666807    0.787381
O     -6.314146    0.876308   -0.151968
H      6.049442    2.347118    0.779545
H      5.637917    1.100062    1.985968
H      7.174060    0.908565    1.033383
H      3.990941    2.196772    1.246913
H      3.460684    0.763932    2.133049
H      2.358313    1.623391    0.908293
H     -2.078018   -2.505185    0.061264
H     -3.832317   -1.948032    0.200132
H     -3.085370   -2.330874   -1.389986
H     -4.418717    0.405245    2.862937
H     -5.780152    1.342623    2.044422
H     -4.093446    2.060405    2.301452
H      5.836672   -1.501281   -2.647025
H      7.155908   -0.201672   -1.015536
H      3.415119   -1.557850   -2.569696
H      1.539704    0.047527   -2.895966
H     -0.257095   -0.314713    2.612799
H     -0.885079   -1.871272    2.044908
H     -0.901277   -0.026699   -2.781721
H     -2.965380   -0.986993    2.277355
H     -2.318337    0.603308    2.716297
H     -4.893620   -1.202788   -1.531067
H     -5.210700    0.297485   -2.419039
H     -2.877674   -0.513468   -2.651393
H     -3.010489    1.180969   -1.915557
H      1.711400   -0.645326    1.305002
H     -2.288011    1.390009    0.512623
