46

C     -2.169469   -0.089786   -1.787352
C     -4.706131    1.203929    0.624535
C      6.106578   -0.666037   -0.791566
C      6.687720    0.227557    0.082931
C      4.725869   -0.781062   -0.835061
C      5.888567    0.992723    0.900376
C      1.878673   -1.427197   -0.142098
C     -0.578407    2.035127   -0.295929
C      0.507240   -1.590375   -0.229643
C     -1.999345    1.846720    0.149572
C     -2.972577   -2.113491    1.197369
C     -2.417699   -1.893096   -0.212379
C      1.596255    0.893693   -0.160695
C      2.459485   -0.176472   -0.105320
C      0.225381    0.775964   -0.248150
C      3.920484   -0.012408   -0.013804
C     -0.321289   -0.496506   -0.282880
C      4.515205    0.862476    0.841106
C     -2.284168    0.454296    0.631989
C     -4.012976   -1.049401    1.434530
C     -1.781154   -0.571572   -0.378135
Cl     3.562224    1.853833    1.898896
N     -3.666595    0.232514    0.884362
O     -5.071497   -1.232800    2.040326
H     -2.109495   -1.019521   -2.428367
H     -1.475656    0.641097   -2.191533
H     -3.216892    0.217522   -1.748776
H     -5.673282    0.806387    0.959013
H     -4.503026    2.157717    1.183864
H     -4.761673    1.499431   -0.442542
H      6.725255   -1.257187   -1.423132
H      7.772938    0.292638    0.091412
H      4.266531   -1.483540   -1.522386
H      6.345455    1.679149    1.571577
H      2.502341   -2.313894   -0.102048
H     -0.469621    2.583500   -1.249481
H     -0.097072    2.708260    0.475945
H      0.106414   -2.618620   -0.253926
H     -2.292609    2.545387    0.960503
H     -2.658440    2.060265   -0.711615
H     -2.197322   -2.112265    1.960274
H     -3.492860   -3.091409    1.175370
H     -3.351649   -1.993317   -0.858756
H     -1.830966   -2.779798   -0.497936
H      2.034664    1.902224   -0.134109
H     -1.715407    0.297341    1.569141
