45

C     -1.988149    0.365566   -1.798088
C     -5.106648    0.544709    0.261345
C     -1.177966    1.392919    1.868172
C      2.068078    0.257260   -0.575795
C      0.777646   -0.164544   -0.852011
C     -2.457781    1.404332    1.057484
C     -2.921504   -2.491160   -0.309573
C     -1.635676   -1.819138   -0.735825
C      7.427220   -0.656579   -0.561007
C      7.546099    0.640556   -0.108267
C      1.186561    1.415650    1.303724
C      5.164458   -0.611572   -0.042012
C     -0.076658    0.978831    0.997874
C      2.274463    1.056409    0.516565
C     -0.311774    0.180206   -0.083783
C     -2.634086   -0.014777    0.579069
C      5.227357    0.664589    0.413704
C     -4.085315   -1.591650   -0.529050
C     -1.637174   -0.332458   -0.482491
N      6.244496   -1.290394   -0.532527
N      6.462975    1.257962    0.359428
N     -3.970641   -0.304651    0.120899
O     -5.088758   -1.890360   -1.208929
S      3.870268    1.614024    1.005482
H     -1.637514   -0.281506   -2.643166
H     -1.505189    1.340427   -1.876315
H     -3.071958    0.485771   -1.916698
H     -4.841480    1.617607    0.132806
H     -5.538122    0.446914    1.294267
H     -5.886871    0.244322   -0.462655
H     -1.312735    0.584222    2.638060
H     -1.003395    2.349580    2.390643
H      2.848248   -0.037866   -1.253417
H      0.647166   -0.801806   -1.729454
H     -3.310104    1.727577    1.684655
H     -2.316789    2.100510    0.206200
H     -2.862517   -2.832249    0.749555
H     -3.031238   -3.415213   -0.915175
H     -1.522474   -2.009152   -1.827152
H     -0.775282   -2.324818   -0.249269
H      8.291521   -1.167428   -0.941601
H      8.506524    1.171268   -0.124785
H      1.350805    2.048469    2.166245
H      4.251526   -1.176018   -0.008262
H     -2.437614   -0.676340    1.448514
