20

C     -2.322701   -0.970777   -0.034277
C     -0.413668    0.980502   -1.297407
C     -0.914394   -0.763769    0.426168
C      1.026817    0.689834    0.693959
C      3.091950   -0.470250    0.160149
C     -0.404313    0.633468    0.153483
O      3.634815    0.224167    1.077212
O      1.758827   -0.265008   -0.070460
H     -3.051693   -0.368107    0.554986
H     -2.475147   -0.785588   -1.106587
H     -2.581180   -2.033489    0.154146
H      0.122446    0.245271   -1.915285
H     -1.482803    1.109703   -1.614917
H      0.063900    1.973354   -1.413586
H     -0.899155   -0.905165    1.528884
H     -0.263280   -1.530624   -0.009221
H      1.444970    1.692961    0.649549
H      1.008050    0.347918    1.749950
H      3.638036   -1.182949   -0.410496
H     -0.981475    1.378547    0.723751
