20

C     -1.045471    1.772026   -0.373506
C     -0.966996   -2.000003    0.152888
C     -1.326544    0.310396   -0.517685
C      0.928233   -0.476522    0.248940
C      2.825183    0.973475    0.326784
C     -0.552842   -0.551609    0.447245
O      3.545977    0.000163   -0.017202
O      1.457968    0.799338    0.484126
H     -0.529895    2.025573    0.571976
H     -0.487131    2.162363   -1.272450
H     -2.031526    2.309435   -0.380698
H     -0.690229   -2.161733   -0.925541
H     -2.064245   -2.095850    0.217935
H     -0.424167   -2.707725    0.797165
H     -2.415885    0.086870   -0.323403
H     -1.139756   -0.072290   -1.553930
H      1.399886   -1.206904    0.928144
H      1.132288   -0.804863   -0.805838
H      3.241094    1.953822    0.506199
H     -0.855942   -0.315963    1.488850
