47

C     -3.763944   -3.119366    1.058483
C     -1.243976   -1.418242   -3.046502
C      4.880431   -1.096486   -1.053822
C      4.755787   -2.170783   -0.180392
C      3.941644   -0.088184   -1.050905
C     -1.844745    4.207229    0.619986
C     -2.323974    2.942642    0.870656
C      3.672436   -2.181433    0.671944
C      0.365174    3.248601    0.444037
C      0.092067    5.606044    0.140991
C     -1.938306   -1.838108    0.881331
C     -1.643593   -0.388358   -1.037606
C     -0.475191    4.317827    0.409224
C     -0.116308    1.965580    0.697894
C     -1.458598    1.839354    0.906562
C      2.849023   -0.123648   -0.173717
C      0.781459    0.822971    0.751349
C      0.126943   -0.511613    0.634154
C     -1.350485   -0.505616    0.443484
N      0.548220    6.667567   -0.061225
N      2.785196   -1.187367    0.644810
N      1.892422    0.926282   -0.179192
O      0.382507   -1.299526    1.789591
O     -3.322171   -1.856572    0.624829
O     -1.019545   -1.454511   -1.685424
O     -1.970673    0.563210    1.161842
H     -4.849517   -3.238421    0.900825
H     -3.241517   -3.929924    0.510401
H     -3.557744   -3.156216    2.146868
H     -2.319288   -1.473802   -3.319396
H     -0.724079   -0.542989   -3.486278
H     -0.797326   -2.362392   -3.472100
H      5.734982   -1.075574   -1.734113
H      5.513581   -2.937372   -0.216320
H      4.010038    0.759692   -1.716921
H     -2.490525    5.070570    0.587248
H     -3.390895    2.773494    1.049481
H      3.550944   -3.011345    1.367961
H      1.438220    3.314228    0.281807
H     -1.710020   -2.086313    1.919190
H     -1.494880   -2.615232    0.225038
H     -1.279540    0.596840   -1.450085
H     -2.751664   -0.397247   -1.181332
H      1.286788    0.854984    1.767950
H      0.563028   -1.131488   -0.193343
H      2.026622    1.702944   -0.833499
H     -0.119011   -0.981931    2.564237
