57

C     -3.842066    0.507365   -1.669889
C     -6.390806    1.789330    0.677788
C      8.647813    1.579816   -0.557215
C      8.307745    0.460032   -1.281421
C      8.140983    1.801058    0.712231
C      7.448593   -0.466888   -0.747359
C      7.276968    0.867399    1.247455
C      2.582789   -0.258414    1.483230
C      2.783286   -1.542316   -0.507435
C     -0.156074   -1.703586   -0.458684
C     -2.253293    1.748673    0.862655
C      3.940221   -0.367960    1.717562
C      4.131171   -1.659751   -0.288579
C     -1.516847   -1.590958   -0.657700
C     -3.607993    1.453125    1.392722
C     -5.667297   -1.785139   -0.373094
C     -4.195871   -1.689692   -0.610411
C     -0.127239    0.416090    0.600017
C      1.993588   -0.842842    0.371900
C      0.574271   -0.695724    0.178994
C     -1.478731    0.568700    0.422587
C      6.945753   -0.246795    0.512841
C      4.707792   -1.073315    0.822170
C     -2.167621   -0.443366   -0.209390
C     -4.311521    0.303148    0.789762
C     -6.348393   -0.469976   -0.316123
C     -3.632394   -0.301255   -0.412708
N     -5.684274    0.579287    0.400719
O     -7.458898   -0.248363   -0.860212
O      6.076529   -1.196247    1.038560
H     -3.792654   -0.233221   -2.520440
H     -3.030410    1.222654   -1.860162
H     -4.831581    0.971716   -1.738334
H     -6.240442    2.557568   -0.117767
H     -7.496164    1.572982    0.658963
H     -6.203178    2.202588    1.693887
H      9.330734    2.294292   -1.009727
H      8.707631    0.303800   -2.260110
H      8.403671    2.676975    1.285374
H      7.187351   -1.334274   -1.312496
H      6.856052    0.998633    2.236311
H      2.000706    0.304890    2.207475
H      2.288295   -1.986117   -1.365732
H      0.363681   -2.595474   -0.804571
H     -1.600460    2.267038    1.625900
H     -2.347237    2.517284    0.040815
H      4.409446    0.085364    2.583389
H      4.746045   -2.218532   -0.996023
H     -2.032266   -2.400334   -1.156451
H     -3.502958    1.305841    2.508232
H     -4.209322    2.406571    1.315214
H     -5.871056   -2.287075    0.615413
H     -6.210367   -2.392585   -1.129620
H     -3.991620   -2.085487   -1.624599
H     -3.656043   -2.355087    0.111939
H      0.389943    1.239943    1.106254
H     -4.385981   -0.531388    1.548329
