46

C     -2.355452   -0.702426    1.568501
C     -4.474259    1.790902    0.277481
C      6.020307   -0.481250    1.430249
C      4.647297   -0.583434    1.354059
C      6.728838    0.126134    0.400601
C      1.856049   -1.284305    0.806158
C     -0.383901    1.740281   -1.107902
C      0.477404   -1.399592    0.776296
C     -1.709981    1.854690   -0.374650
C     -3.730219   -1.788658   -0.876819
C     -2.258837   -1.848596   -0.573553
C      1.715961    0.737505   -0.382039
C      4.677742    0.498707   -0.726688
C      3.942938   -0.095468    0.272764
C      2.489781   -0.224079    0.233218
C      0.341590    0.618106   -0.408941
C      6.050160    0.612768   -0.673014
C     -0.328545   -0.441319    0.161576
C     -2.418555    0.567799   -0.581545
C     -4.453001   -0.691844   -0.211517
C     -1.781145   -0.607626    0.160565
F      6.715128    1.207142   -1.689315
N     -3.804754    0.583834   -0.158778
O     -5.596241   -0.818106    0.305499
H     -1.563977   -0.917464    2.315785
H     -3.096766   -1.525163    1.670624
H     -2.841976    0.246791    1.859712
H     -4.878781    2.344853   -0.601598
H     -5.269999    1.585015    1.006616
H     -3.700227    2.491094    0.713732
H      6.598074   -0.852599    2.262703
H      4.117915   -1.065774    2.178513
H      7.818593    0.228384    0.421576
H      2.474417   -2.048755    1.294334
H     -0.603719    1.377440   -2.129553
H      0.194564    2.674150   -1.065658
H      0.055079   -2.271055    1.252815
H     -2.290497    2.652645   -0.843363
H     -1.517470    2.024771    0.704468
H     -4.235160   -2.741973   -0.540372
H     -3.941594   -1.718817   -1.965589
H     -1.714930   -1.859693   -1.541272
H     -1.975561   -2.781266   -0.041429
H      2.220782    1.570099   -0.832946
H      4.177032    0.898552   -1.596404
H     -2.394099    0.317599   -1.663889
