45

C      2.583597   -1.626250   -0.854693
C     -5.599577   -0.511623   -1.029487
C     -6.311969   -0.008164    0.050291
C     -4.225607   -0.574969   -1.024104
C     -5.599410    0.429313    1.133592
C     -1.377524   -0.826541    1.134283
C      0.780307    0.821038   -2.157211
C      0.009748   -0.882014    1.095860
C      2.267459    0.870900   -2.016378
C      4.291051   -0.682413    1.342607
C      2.802248   -0.677219    1.390869
C     -1.288563    0.299880   -0.971702
C     -2.040155   -0.227061    0.086493
C      0.097793    0.233221   -0.989697
C     -3.500746   -0.131676    0.075141
C      0.741686   -0.366805    0.061792
C     -4.199959    0.370191    1.150233
C      2.699321    0.866877   -0.569453
C      4.817085    0.273985    0.352921
C      2.221714   -0.432472    0.035804
N      4.112742    0.939231   -0.470563
N     -3.565193    0.862073    2.316528
O      6.230425    0.415264    0.374670
O     -2.325169    1.405739    2.384803
O     -4.209499    0.786773    3.401007
H      3.666229   -1.690878   -1.018723
H      2.284556   -2.528251   -0.272501
H      1.988378   -1.631578   -1.775496
H     -6.182780   -0.851599   -1.876523
H     -7.404701    0.036995    0.034964
H     -3.667952   -0.973383   -1.878876
H     -6.125336    0.835205    2.008589
H     -1.933742   -1.252161    1.972127
H      0.363594    1.848227   -2.359144
H      0.547741    0.229173   -3.077708
H      0.479537   -1.358051    1.933913
H      2.616634    1.837384   -2.455951
H      2.790445    0.071348   -2.603149
H      4.641576   -1.725565    1.146275
H      4.654650   -0.430514    2.367309
H      2.469067   -1.705630    1.707972
H      2.390718    0.097240    2.082777
H     -1.832042    0.765327   -1.782890
H      2.159509    1.691023   -0.070503
H      6.682116    0.911290   -0.386069
