49

C      3.894368    0.705869    1.997025
C     -2.382130    1.638040   -1.097159
C     -5.013613   -0.808396   -1.119313
C      6.454148   -0.619104   -0.385036
C      5.646609   -0.955013   -1.445453
C      5.859082   -0.074440    0.728072
C      4.272157   -0.748078   -1.388625
C      1.724774    1.242654    0.205546
C     -0.905808   -2.002861   -0.897160
C      0.369896    1.402597    0.258109
C     -2.244560   -1.415682   -1.283377
C     -3.506405    0.721347    2.032100
C     -2.312387    1.290404    1.349368
C      1.348282   -0.971898   -0.546241
C      4.470453    0.129859    0.774532
C      2.233359    0.029469   -0.205300
C     -0.034290   -0.837224   -0.502339
C      3.666223   -0.202635   -0.277606
C     -0.512386    0.377534   -0.090820
C     -2.700267   -0.630482   -0.083687
C     -4.594982    0.343194    1.063382
C     -1.985099    0.689822    0.011322
N     -4.120226   -0.378714   -0.075943
O     -5.790801    0.621599    1.221101
H      4.466209    0.273888    2.881756
H      4.128475    1.806627    2.114740
H      2.859440    0.445278    2.213122
H     -1.784874    1.484832   -2.000346
H     -3.443638    1.530811   -1.336797
H     -2.242497    2.671032   -0.683088
H     -4.475542   -0.733777   -2.085982
H     -5.918926   -0.173025   -1.168724
H     -5.365837   -1.847805   -0.932445
H      7.543641   -0.775735   -0.412755
H      6.098408   -1.380480   -2.318741
H      6.467134    0.198982    1.575559
H      3.627371   -1.011333   -2.223478
H      2.423402    2.036818    0.472519
H     -0.986866   -2.732468   -0.072246
H     -0.402821   -2.454766   -1.785608
H     -0.027851    2.361207    0.582870
H     -2.028119   -0.663811   -2.089174
H     -2.978988   -2.169372   -1.594218
H     -3.952967    1.459510    2.726225
H     -3.302101   -0.191570    2.627886
H     -2.394160    2.400044    1.309782
H     -1.424719    1.086546    2.017020
H      1.708424   -1.953671   -0.878923
H     -2.428994   -1.215625    0.818547
