57

C     -1.679940   -3.183473   -2.467401
C     -2.055988    5.430471    0.827560
C     -5.507345    1.117953    0.438864
C      4.814982    3.312239   -0.340048
C      5.089156    2.586475    0.799155
C      3.913220    2.814065   -1.248057
C      1.643974   -0.295780    1.210486
C      1.030748   -1.637719    1.481183
C      4.450869    1.383726    0.993289
C      3.277873    1.609025   -1.047367
C      2.893306   -0.450605    0.346277
C      0.581387   -2.442706    0.366662
C     -0.619331    1.835929   -0.689249
C     -1.107170    3.036429   -0.180417
C     -2.715366    0.841913   -0.419181
C     -0.517119   -3.412804   -1.541917
C      3.527949    0.857785    0.080122
C     -1.370929    0.701437   -0.834527
C     -2.424160    3.116408    0.208696
C     -3.228831    2.001129    0.083789
C     -0.541494   -2.219160   -0.525670
C     -0.591538   -4.700019   -0.868490
N      0.282796   -5.639581   -0.952521
O     -1.709541   -4.947407   -0.055025
O      0.183116   -6.827604   -0.311739
O     -2.898822    4.318137    0.714270
O     -4.551990    2.134210    0.491023
S     -0.772015   -0.787471   -1.454130
H     -1.749586   -3.925459   -3.265557
H     -1.562519   -2.136344   -2.866908
H     -2.598751   -3.151841   -1.832683
H     -1.806033    5.847673   -0.160555
H     -2.601068    6.199025    1.423975
H     -1.103866    5.204481    1.348000
H     -5.006149    0.150526    0.633700
H     -6.105582    1.112637   -0.496542
H     -6.261305    1.231118    1.271722
H      5.327494    4.252550   -0.470595
H      5.809201    2.981877    1.526281
H      3.712794    3.400327   -2.135525
H      0.924389    0.407122    0.834480
H      2.028370    0.133314    2.188846
H      0.235256   -1.464139    2.270407
H      1.826571   -2.191330    2.097157
H      4.664317    0.806297    1.892369
H      2.569405    1.219532   -1.773595
H      2.674515   -0.923167   -0.620848
H      3.632116   -1.074541    0.872218
H      1.554852   -2.595213   -0.291421
H      0.547659   -3.536169    0.776616
H      0.427720    1.863050   -0.977845
H     -0.448027    3.903720   -0.092586
H     -3.337223   -0.037701   -0.521399
H      0.429913   -3.273754   -2.092220
H     -1.536784   -2.439594    0.089424
H     -1.704451   -5.706723    0.625629
H      0.058973   -6.810278    0.702954
