62

C      7.695953    1.714228   -0.185175
C      6.948199    1.635877   -1.342744
C      7.310164    0.928339    0.879414
C     -0.590445   -3.278745    2.450732
C      0.412034   -3.726479    1.412633
C     -6.420709    4.026012   -0.862140
C      5.848798    0.814098   -1.469628
C      6.214587    0.100296    0.773340
C     -5.503274    3.076464   -0.970064
C     -0.810250   -1.790362    2.257364
C      1.515823    1.220718    0.596333
C      2.813666    0.868187    0.283804
C     -4.079872    1.396585    0.405752
C      0.039674   -3.351468    0.024607
C     -0.928869   -1.770086   -1.534851
C     -3.457700    0.914215   -0.862683
C     -1.860442   -0.649856   -1.738882
C     -6.911175    4.373453    0.390745
C     -0.892242    0.826478    0.836179
C      2.038037   -1.269150   -0.293881
C      0.445323    0.319986    0.466201
C      5.480800    0.036421   -0.391706
C      3.096602   -0.401480   -0.172666
C     -5.027825    2.430466    0.122399
C     -1.425670   -1.624773    0.889367
C      0.722380   -0.945162    0.012065
C     -1.923876   -0.222729    0.645635
C     -0.377508   -1.911243   -0.136479
N     -2.530687   -0.112710   -0.609789
O      4.378926   -0.797115   -0.496827
S     -5.945070    3.219110    1.429252
H      8.566193    2.365120   -0.085577
H      7.246672    2.250503   -2.181109
H      7.857070    0.936842    1.834930
H     -0.166245   -3.517466    3.446411
H     -1.571267   -3.770231    2.274818
H      0.445773   -4.839473    1.470070
H      1.402528   -3.363786    1.735072
H     -6.841219    4.586981   -1.751018
H      5.271346    0.773711   -2.408231
H      5.895997   -0.531797    1.615605
H     -5.084519    2.772613   -1.985659
H      0.200989   -1.338492    2.247275
H     -1.432687   -1.353740    3.061653
H      1.318386    2.225609    0.953631
H      3.636866    1.552525    0.381200
H     -3.315833    1.808527    1.118016
H     -4.571519    0.558679    0.934369
H     -0.875453   -3.956027   -0.244414
H      0.817717   -3.683664   -0.671892
H     -1.354362   -2.763879   -1.855981
H     -0.041459   -1.624973   -2.205620
H     -2.977676    1.722894   -1.452089
H     -4.265053    0.522151   -1.549838
H     -1.356995    0.209905   -2.271756
H     -2.652252   -0.982424   -2.474062
H     -7.647173    5.098879    0.748404
H     -1.123955    1.689036    0.173338
H     -0.906433    1.224904    1.887694
H      2.260139   -2.262724   -0.651561
H     -2.302537   -2.299534    0.815219
H     -2.708393   -0.060240    1.446620
