25

C     -3.964692   -0.095028   -0.616681
C     -1.589111   -0.801746    1.111563
C     -2.721179    0.724167   -0.516522
C      2.981447   -1.442561    0.419715
C     -1.495649   -0.064735   -0.204175
C      3.241785   -0.143110    0.343490
C     -0.290362    0.796307   -0.137046
C      1.061616    0.321867    0.056522
C      4.591993    0.406538    0.452703
N      2.162068    0.619560    0.157965
O     -0.512499    2.047011   -0.265072
O      5.568454   -0.361371    0.626575
O      4.857769    1.754449    0.373265
S      1.195333   -1.559792    0.225244
H     -4.213182   -0.276479   -1.675497
H     -3.816808   -1.103830   -0.156701
H     -4.829882    0.388611   -0.102461
H     -1.210855   -1.860343    1.012244
H     -1.015018   -0.276814    1.886263
H     -2.629003   -0.885156    1.486390
H     -2.883438    1.518899    0.268924
H     -2.610665    1.291808   -1.462133
H      3.653057   -2.368932    0.571983
H     -1.310973   -0.788414   -1.054518
H      5.779795    2.159094    0.323589
