52

C     -3.121577    1.938427    0.177019
C     -5.287111   -1.825439    1.133514
C      7.850874   -0.733414   -0.455149
C      7.256802   -1.222115   -1.596382
C      7.078519   -0.146733    0.534363
C      5.889425   -1.109794   -1.719303
C      4.948232    0.549219    1.396971
C      3.591685    0.640827    1.234428
C      0.905610    0.409784   -1.301362
C     -1.543807    0.278705    2.177124
C     -0.464951    0.507411   -1.415856
C     -2.900457   -0.298691    1.956424
C     -4.798806    0.682552   -1.729447
C     -3.310953    0.417010   -1.765690
C      3.740169   -0.411551   -0.857110
C      0.647878    0.233418    1.029117
C      5.707116   -0.036235    0.406768
C      5.115064   -0.522540   -0.729151
C      2.940805    0.164023    0.102625
C      1.495706    0.268944   -0.058319
C     -0.716167    0.329307    0.930968
C     -1.279735    0.468671   -0.314092
C     -3.267297   -0.534475    0.530397
C     -5.408126   -0.038640   -0.581727
C     -2.752847    0.570754   -0.391142
N     -4.657285   -0.785700    0.347460
O     -6.664820    0.016092   -0.423983
H     -3.593112    2.572896   -0.600737
H     -2.240105    2.497802    0.541014
H     -3.809302    1.836619    1.041220
H     -5.620470   -2.677502    0.470661
H     -4.591611   -2.284882    1.858297
H     -6.167504   -1.452470    1.698408
H      8.926426   -0.810423   -0.335533
H      7.886121   -1.673951   -2.349522
H      7.519725    0.248717    1.447749
H      5.406889   -1.488936   -2.610033
H      5.468196    0.915312    2.271249
H      2.968432    1.093782    1.991007
H      1.579259    0.436416   -2.145608
H     -1.666014    1.307146    2.610411
H     -0.964806   -0.287848    2.941428
H     -0.854253    0.615761   -2.428999
H     -2.928765   -1.295176    2.485758
H     -3.684057    0.308567    2.491739
H     -5.065017    1.738640   -1.739777
H     -5.241040    0.225687   -2.659605
H     -3.171899   -0.630734   -2.102811
H     -2.812790    1.131816   -2.453497
H      3.279622   -0.799638   -1.760544
H      1.100170    0.123370    2.006825
H     -2.718041   -1.460786    0.198623
