75

C     -7.128063   -1.212884    1.117681
C     10.058702    0.978494    2.212116
C     10.544240   -0.610425    0.383369
C     -8.833930    1.915379   -0.797800
C      1.107821   -2.527506    0.753835
C      7.510249    1.988852   -1.581189
C      5.914399   -0.255571    2.591097
C     -0.241584   -2.479827    0.585570
C      1.910347   -1.386785    0.745799
C      7.142080   -0.031179    2.027930
C      6.251289    1.759558   -1.017679
C      8.617352    1.538365   -0.930267
C      4.798737    0.192639    1.944044
C     -2.990339   -2.218672   -0.407105
C     -5.037182    1.209642    1.024327
C     -4.370485   -2.129682   -0.569539
C     -6.500376    1.333736    0.691331
C     -7.429466   -1.148199   -2.621256
C     -7.216386   -1.784519   -1.238530
C     -3.029870   -0.112703    0.654780
C     -0.064236   -0.147883    0.392128
C     -0.848291   -1.265721    0.399668
C     -2.313929   -1.192609    0.214901
C     -4.408713   -0.021527    0.493697
C      1.334695   -0.172012    0.564825
C      7.274622    0.637264    0.824382
C      6.128856    1.085612    0.180915
C     -5.082032   -1.045116   -0.126586
C      8.516455    0.853970    0.286414
C      4.861450    0.860255    0.747347
C     -6.756482    0.578917   -0.564247
C     -8.332638    0.027903   -2.337581
C     -6.543053   -0.894346   -0.269130
N      1.966266    1.070706    0.484693
N      9.686056    0.413063    0.946287
N     -7.979618    0.844546   -1.233216
O     -9.335322    0.244266   -3.059830
O      3.656009    2.981672   -0.202238
O      3.543850    0.885642   -1.528589
S      3.502310    1.490877   -0.103918
H     -8.146254   -0.825673    1.228665
H     -7.231721   -2.337893    1.116320
H     -6.434864   -0.976575    1.920982
H     10.317428    0.185960    2.926036
H      9.276847    1.649064    2.625427
H     10.998381    1.557337    2.025809
H     11.374158   -0.134020   -0.178519
H     11.000589   -1.211384    1.192146
H      9.942431   -1.258589   -0.279986
H     -9.691926    2.086915   -1.498045
H     -8.304562    2.894792   -0.748802
H     -9.193833    1.719397    0.233712
H      1.610049   -3.486920    0.903611
H      7.601961    2.518717   -2.524316
H      5.811921   -0.786916    3.549391
H     -0.833325   -3.383860    0.597235
H      2.981332   -1.488265    0.858369
H      8.042579   -0.384238    2.521180
H      5.368493    2.131090   -1.530795
H      9.623357    1.680999   -1.309512
H      3.807455    0.033874    2.396985
H     -2.431228   -3.078102   -0.758698
H     -4.536367    2.096862    0.534783
H     -4.834167    1.343523    2.108745
H     -4.841990   -2.973161   -1.068150
H     -7.113057    0.906372    1.529203
H     -6.819365    2.398860    0.621349
H     -8.018786   -1.868591   -3.192872
H     -6.494344   -0.825147   -3.076710
H     -6.833486   -2.798620   -1.317026
H     -8.283191   -1.918309   -0.874468
H     -2.468819    0.695177    1.148607
H     -0.584275    0.809640    0.240297
H     -5.935064    0.874358   -1.284226
H      1.389852    1.899136    0.866207
