53

C     -5.248678    0.687841    2.240918
C     -2.171537    2.466725   -1.937641
C     -0.255592   -4.640161   -0.508872
C      0.952658   -4.435697    0.359992
C     -0.523532   -3.515380   -1.454970
C      1.060635   -3.064067    0.932686
C     -2.070580   -1.836411    0.661045
C      2.014992    1.789063    1.225641
C     -3.093194   -1.069304    1.195566
C      2.297218    3.051842    1.727479
C     -1.611426   -0.130973   -0.862620
C      2.952843    2.386950   -0.855102
C      4.150208    5.688802    0.161917
C     -1.290491   -1.397723   -0.387573
C      2.340059    1.443729   -0.071185
C     -0.188585   -2.159196   -0.993009
C      1.108767   -2.089749   -0.197211
C     -3.383621    0.186679    0.697000
C      2.910213    3.983598    0.930874
C     -2.616255    0.642603   -0.350028
C      3.245471    3.663423   -0.368953
C      2.029735    0.108901   -0.566306
N      1.457085   -0.770592    0.172478
O      2.374776   -0.185159   -1.872727
O     -4.388232    0.995863    1.187180
O     -2.900324    1.920123   -0.868110
O      3.285479    5.294697    1.214590
O      3.836012    4.793920   -0.893158
H     -4.756384    0.191827    3.092692
H     -5.673406    1.646651    2.630602
H     -6.124297    0.093858    1.903674
H     -2.366121    3.567722   -1.947820
H     -2.550764    2.046370   -2.875704
H     -1.082573    2.344347   -1.797326
H     -1.109998   -4.869130    0.165502
H     -0.081008   -5.579370   -1.079450
H      1.845852   -4.572767   -0.312754
H      0.983734   -5.254303    1.102101
H      0.027102   -3.763185   -2.405971
H     -1.600217   -3.575944   -1.736978
H      2.083579   -3.030312    1.433255
H      0.368381   -2.822384    1.745766
H     -1.896560   -2.791722    1.077583
H      1.533533    1.084849    1.880281
H     -3.706416   -1.413461    2.019651
H      2.029589    3.289618    2.744412
H     -1.038055    0.285277   -1.691946
H      3.232513    2.191643   -1.864813
H      5.198804    5.550898    0.506740
H      3.985328    6.725938   -0.153881
H      0.099031   -1.576286   -1.933904
H      1.899294   -2.483243   -0.903767
H      2.424954   -1.097235   -2.265983
