46

C     -2.277917   -0.800051   -1.323169
C     -4.286837    2.060473   -0.444268
C      1.788985   -1.571705    0.684164
C     -0.466035    1.679023   -0.814563
C      0.406466   -1.613006    0.656292
C     -1.538061    1.973338    0.212007
C     -3.910357   -1.495785    0.999914
C     -2.428288   -1.623032    0.965104
C      1.704438    0.575026   -0.261964
C      0.347844    0.540312   -0.291733
C      2.470183   -0.484241    0.228875
C     -0.348626   -0.553631    0.165686
C     -2.334439    0.783702    0.592234
C     -4.452203   -0.365323    0.237891
C      3.909638   -0.353607    0.218861
C      6.708965   -0.079959    0.227235
C      4.699496   -0.902844   -0.766914
C      4.550280    0.339842    1.215552
C      6.069772   -0.773425   -0.769697
C      5.941508    0.479640    1.225615
C     -1.806171   -0.542072    0.107608
Cl     8.466428    0.101886    0.247887
F      4.041427   -1.591460   -1.752834
F      3.889115    0.931044    2.249054
F      6.802427   -1.325801   -1.751746
F      6.580895    1.161064    2.204840
N     -3.723121    0.863924    0.106912
O     -5.578947   -0.460370   -0.318432
H     -2.956892   -1.666015   -1.392188
H     -2.837185    0.068064   -1.729960
H     -1.391440   -0.982660   -1.991153
H     -3.864944    2.332128   -1.429201
H     -4.154114    2.874899    0.267674
H     -5.371048    1.851236   -0.619110
H      2.349856   -2.417337    1.073214
H      0.168766    2.601404   -0.864202
H     -0.859631    1.505121   -1.818326
H     -0.112911   -2.493090    1.025848
H     -2.163870    2.822157   -0.176152
H     -1.027611    2.373380    1.113597
H     -4.295396   -1.402653    2.057435
H     -4.366226   -2.438207    0.622716
H     -2.103081   -2.644589    0.620418
H     -2.024616   -1.502256    1.992697
H      2.226697    1.450857   -0.630143
H     -2.443219    0.714600    1.711906
