62

C     -7.690046    0.432553    0.168701
C     -6.992436   -0.610664   -0.408980
C     -7.195239    1.709837    0.072336
C     -1.115946   -2.460230    2.190675
C     -1.802769   -2.729087    0.872761
C      8.266678    1.123974    0.031055
C     -5.805669   -0.365498   -1.077902
C     -6.013073    1.930779   -0.597645
C      7.109345    0.701000   -0.462384
C     -0.433269   -1.101072    2.139580
C     -1.179875    2.317703   -0.037866
C     -2.389588    2.272759   -0.685986
C      4.537659    1.040196   -0.473780
C     -0.924422   -2.537666   -0.300924
C      0.942364   -1.400409   -1.338885
C      3.888963    0.036168    0.487101
C      2.268903   -0.820279   -1.104502
C      8.294367    2.172266    0.921339
C      0.862549    1.330547    0.826461
C     -2.116031   -0.046948   -1.056950
C     -0.417286    1.140322    0.103030
C     -5.299773    0.910059   -1.181068
C     -2.876889    1.093377   -1.204836
C      5.932473    1.282324   -0.108577
C      0.611806   -1.168253    1.074553
C     -0.894741   -0.036607   -0.410434
C      1.528492    0.024572    1.051154
C     -0.097927   -1.272069   -0.265741
N      2.546658   -0.160720    0.100303
O     -4.116387    1.116584   -1.852691
S      6.490236    2.570061    1.045996
H     -8.617984    0.212181    0.687364
H     -7.365292   -1.623057   -0.344528
H     -7.763718    2.523482    0.538139
H     -0.333195   -3.214985    2.336984
H     -1.904217   -2.465570    2.975300
H     -2.091673   -3.822390    0.899083
H     -2.752125   -2.172985    0.853237
H      9.258683    0.649419   -0.253671
H     -5.292826   -1.190560   -1.512559
H     -5.643017    2.929157   -0.662764
H      7.049142   -0.160125   -1.198539
H     -1.223230   -0.390784    1.830279
H     -0.032679   -0.829348    3.137141
H     -0.827455    3.271295    0.359333
H     -3.009222    3.177221   -0.812071
H      4.539373    0.608588   -1.496125
H      3.997981    2.007815   -0.434312
H     -1.412931   -2.627869   -1.255544
H     -0.153830   -3.370537   -0.280786
H      0.523488   -0.932377   -2.293806
H      1.059561   -2.499665   -1.552432
H      3.897646    0.552529    1.492015
H      4.504889   -0.861272    0.588815
H      2.564883   -0.177071   -1.998696
H      3.039297   -1.658332   -1.188583
H      9.052279    2.693692    1.451201
H      0.715444    1.901393    1.772579
H      1.507786    1.962615    0.147866
H     -2.475027   -0.967657   -1.450770
H      1.252371   -2.063798    1.213509
H      2.016474    0.043416    2.072179
