48

C     -2.968150    1.635633    0.874651
C      0.777355    0.841320   -1.466242
C     -1.117802   -0.769503    1.996347
C      4.856920    0.428078    1.040970
C      3.536880    0.598524    0.796041
C     -0.631514    0.897227   -1.357624
C     -2.605767   -0.781415    2.046641
C     -5.013980    0.681441   -0.815440
C     -3.552950    0.653511   -1.276641
C      0.815253   -0.230107    0.633651
C      5.092621   -0.630506   -1.056490
C      1.514090    0.280761   -0.478680
C     -0.545619   -0.185223    0.757413
C      5.680370   -0.208358    0.095873
C      2.963092    0.135833   -0.422524
C     -1.265880    0.388286   -0.259040
C      3.723138   -0.467010   -1.338859
C     -3.094852   -0.857044    0.606042
C     -5.354147   -0.581403   -0.151439
C     -2.731611    0.451911   -0.063242
C      7.119470   -0.416767    0.420889
F      7.239562   -0.349760    1.820799
F      7.564946   -1.637841   -0.015387
F      7.840993    0.634451   -0.089033
N     -4.442724   -1.257275    0.491310
N      3.182703   -0.954381   -2.544860
O     -6.653194   -1.099268   -0.184755
O      1.901516   -1.344257   -2.686651
O      3.967078   -1.043681   -3.534129
H     -2.060267    1.838804    1.522866
H     -3.041796    2.550173    0.212284
H     -3.877094    1.561618    1.463024
H      1.233613    1.261656   -2.361292
H     -0.811313   -1.867261    2.044964
H     -0.614658   -0.351135    2.913200
H      5.326337    0.783273    1.965617
H      2.861406    1.104972    1.482016
H     -1.148244    1.363676   -2.185086
H     -3.030087   -1.562857    2.687772
H     -2.901164    0.185076    2.517518
H     -5.208826    1.579220   -0.187438
H     -5.590380    0.801725   -1.751612
H     -3.458921   -0.168499   -2.014891
H     -3.366769    1.666068   -1.686547
H      1.453067   -0.666558    1.400027
H      5.695367   -1.136166   -1.824991
H     -2.436684   -1.643946    0.121105
H     -6.821384   -2.113017   -0.158130
