55

C      3.325692   -2.547568    1.671367
C     -2.993792    2.004157   -0.262234
C     -5.040007   -0.892711   -1.876444
C      6.848134    0.253543   -2.457008
C      6.579761    1.542902   -2.081406
C      6.277738   -0.817535   -1.813682
C      5.723362    1.769234   -1.040916
C     -1.008216    0.224614   -1.110421
C     -0.073318    0.704692    3.018942
C     -1.385581    0.836782    2.603444
C     -2.333623   -0.469038   -1.322461
C     -5.036522   -0.204365    1.873096
C     -4.171782    1.044007    1.622690
C      4.812112   -1.624001   -0.081381
C      0.590606    0.272514    0.764984
C      3.944647   -1.403072    0.972383
C     -0.710219    0.401446    0.340113
C      5.404109   -0.565363   -0.751377
C      0.912567    0.422635    2.097655
C     -1.697652    0.687245    1.283211
C      5.134537    0.727834   -0.374170
C     -3.223439   -0.446185   -0.145282
C     -5.532848   -0.677596    0.541808
C      3.703184   -0.104811    1.315928
C     -3.054039    0.804145    0.696649
N      4.283637    0.910830    0.658086
N     -4.596783   -0.675886   -0.528008
O     -6.721186   -1.049602    0.413396
S      2.598156    0.257133    2.661583
H      2.341769   -2.758012    1.217562
H      3.997615   -3.426780    1.603675
H      3.127409   -2.237982    2.720271
H     -3.796716    2.754700    0.004567
H     -3.206754    1.731012   -1.295561
H     -2.052315    2.586112   -0.122649
H     -5.928360   -1.590356   -1.900379
H     -5.380620    0.027926   -2.370309
H     -4.283885   -1.378346   -2.524202
H      7.532980    0.085082   -3.288596
H      7.052306    2.372529   -2.616697
H      6.479470   -1.822166   -2.097462
H      5.486665    2.766177   -0.715402
H     -0.229193   -0.451996   -1.518983
H     -0.909347    1.171651   -1.675144
H      0.174669    0.824220    4.071998
H     -2.184307    1.059636    3.324860
H     -2.186534   -1.555410   -1.603644
H     -2.791210   -0.020393   -2.226637
H     -4.476071   -0.991836    2.379852
H     -5.907757    0.122799    2.445585
H     -4.933265    1.757218    1.160794
H     -3.964883    1.486150    2.593122
H      5.031277   -2.634930   -0.386415
H      1.397948    0.046709    0.045912
H     -2.950129   -1.309690    0.528603
