54

C      0.356333    6.008346   -0.868436
C     -0.047385    5.265983    0.212090
C      0.504362    5.448137   -2.125119
C      6.071488   -2.129491   -1.442313
C     -0.315692    3.923687    0.053061
C      0.225292    4.106537   -2.234132
C     -2.629431   -2.636394   -0.438045
C     -4.234561   -3.775312    3.334850
C     -1.677998   -1.488391   -0.386203
C     -3.878596   -2.449739    3.132789
C      4.858183   -2.009553   -2.059004
C      6.296969   -1.510861   -0.246234
C      1.792753    0.213071   -0.375645
C      0.799555    0.968182    0.474026
C     -3.540392   -4.344732    1.092320
C     -0.470337    1.858645   -1.389302
C     -1.627384    0.817298    0.467826
C     -0.187149    3.314869   -1.164539
C     -3.182348   -3.037679    0.873319
C     -4.063739   -4.699786    2.323237
C     -1.734348   -0.651313    0.858650
C     -3.353854   -2.103337    1.892895
C      4.102997   -0.682224   -0.326987
F     -4.420294   -5.998899    2.545028
N      3.880759   -1.283016   -1.492084
N      5.279455   -0.798478    0.270949
N      3.079056    0.085762    0.285285
N     -0.427841    1.056414   -0.231269
O     -2.964696   -0.818435    1.574839
H      0.559761    7.053968   -0.725721
H     -0.159527    5.724258    1.194571
H      0.822487    6.066388   -2.946194
H      6.846171   -2.709920   -1.896253
H     -0.627453    3.386622    0.910989
H      0.339488    3.652235   -3.222991
H     -2.205044   -3.528151   -0.950500
H     -3.514226   -2.336237   -1.067898
H     -4.646484   -4.052505    4.304458
H     -0.622437   -1.897723   -0.458570
H     -1.768334   -0.846736   -1.311934
H     -4.000210   -1.693000    3.908817
H      4.600641   -2.471918   -3.009694
H      7.219297   -1.548444    0.312615
H      1.447497   -0.797231   -0.625241
H      1.934426    0.739111   -1.364126
H      0.683070    0.381757    1.421203
H      1.262191    1.959493    0.684997
H     -3.424955   -5.105655    0.332948
H     -1.515864    1.788655   -1.808586
H      0.206544    1.435674   -2.164528
H     -1.787169    1.407820    1.401507
H     -2.475720    1.098888   -0.200360
H     -0.864039   -0.928831    1.498912
H      3.198734    0.572189    1.195959
