54

C      1.295104   -5.509666    1.193956
C      0.505754   -5.626315    0.078278
C      1.548618   -4.255418    1.704278
C      5.871090    4.118014   -0.403914
C     -0.018033   -4.467172   -0.507951
C      1.028466   -3.116781    1.120654
C     -3.465405   -0.142154    1.479513
C     -5.649480    3.213724    0.034127
C     -1.983408    0.136942    1.292700
C     -4.366548    2.976872   -0.416288
C      4.557379    4.049216   -0.016827
C      6.421331    2.975192   -0.983116
C      2.298151    0.550843   -0.555407
C      1.697993   -0.799287   -0.848209
C     -5.490321    1.289597    1.399364
C     -0.344248   -2.046356   -0.651231
C     -0.332191    0.380235   -0.591765
C      0.240696   -3.224383    0.007904
C     -4.207021    1.034373    0.962366
C     -6.235009    2.371389    0.952450
C     -1.789723    0.375780   -0.189114
C     -3.647675    1.894480    0.043502
C      4.393728    1.822359   -0.758260
F     -7.507283    2.587644    1.411794
N      3.849885    2.916700   -0.198453
N      5.679363    1.884943   -1.138759
N      3.679466    0.632468   -0.958309
N      0.354194   -0.835381   -0.414032
O     -2.339278    1.683589   -0.439240
H      1.691652   -6.421000    1.632154
H      0.304851   -6.609410   -0.326060
H      2.178215   -4.222632    2.587401
H      6.507949    4.975343   -0.298771
H     -0.629911   -4.645093   -1.383238
H      1.265326   -2.160998    1.576306
H     -3.658935   -0.310974    2.573416
H     -3.727816   -1.061408    0.918843
H     -6.201713    4.079570   -0.343867
H     -1.332706   -0.655558    1.700746
H     -1.802013    1.110694    1.816767
H     -3.957660    3.665720   -1.133396
H      4.132056    4.937200    0.432627
H      7.466729    3.000716   -1.300878
H      1.672175    1.290188   -1.132925
H      2.155224    0.784969    0.516345
H      2.335693   -1.632262   -0.483902
H      1.740658   -0.900448   -1.978222
H     -5.965301    0.621194    2.133466
H     -1.390704   -1.975657   -0.274803
H     -0.432078   -2.222578   -1.747954
H      0.137161    1.154331    0.101821
H     -0.256641    0.837949   -1.599892
H     -2.408004   -0.325607   -0.749166
H      4.130200   -0.185699   -1.389838
