49

C      7.765859    0.716066    0.285611
C     -7.283509   -1.190525    0.187388
C      6.771502   -0.404138    0.402817
C      5.354767    0.110541    0.268464
C      4.377067   -1.038596    0.390488
C      2.955443   -0.600808    0.266561
C      2.657252    0.058383   -1.057185
C      1.212156    0.491760   -1.150994
C      0.261320   -0.652542   -1.017479
C     -1.198057   -0.261815   -1.119402
C     -1.584509    0.708120   -0.054532
C     -3.002389    1.165403   -0.085053
C     -6.071543   -0.833527   -0.171191
C     -3.937792    0.023501    0.064151
C     -5.400977    0.464845    0.054853
C     -5.793604    1.130419    1.289405
C     -5.084608   -1.631263   -0.890701
O     -6.590818    0.645791    2.129397
O     -5.267145    2.380000    1.579312
O     -5.206245   -2.843195   -1.255739
O     -3.955966   -0.809995   -1.113467
H      7.371716    1.592855    0.839346
H      8.061717    0.939370   -0.742896
H      8.681312    0.389007    0.856445
H     -7.685675   -2.192280   -0.033909
H     -7.978331   -0.554848    0.714034
H      6.848890   -0.799939    1.457011
H      6.983076   -1.201942   -0.337594
H      5.210388    0.872268    1.036283
H      5.249615    0.514221   -0.769925
H      4.518925   -1.482020    1.391470
H      4.585261   -1.839601   -0.345270
H      2.334658   -1.541491    0.318751
H      2.606854    0.040502    1.077096
H      3.279838    0.935516   -1.241082
H      2.857378   -0.667323   -1.872132
H      1.057333    1.042533   -2.095658
H      1.018453    1.199454   -0.306237
H      0.435693   -1.438486   -1.801988
H      0.366688   -1.191672   -0.051898
H     -1.747918   -1.225590   -0.877794
H     -1.473465    0.090382   -2.131588
H     -1.327306    0.242862    0.935465
H     -0.926688    1.622048   -0.103475
H     -3.193199    1.680568   -1.050537
H     -3.154317    1.845405    0.779313
H     -3.702425   -0.653718    0.900939
H     -5.531046    1.075912   -0.856057
H     -5.725631    3.077578    2.140052
