39

C     -3.550954   -2.149144    1.123944
C      4.185490   -1.344168    1.872345
C     -4.106925   -1.053624    0.263181
C      1.306955   -2.507937   -1.803632
C     -0.921893    3.735803    0.519445
C      0.932410   -1.188553   -1.913097
C     -0.024963    3.347967   -0.659292
C      2.220802   -2.878745   -0.822229
C     -1.865711    2.586553    0.495068
C      1.020869    1.210920   -1.205167
C      2.322833   -0.602767   -0.131524
C      1.401087   -0.185433   -1.110489
C      0.121851    1.824635   -0.241079
C      2.714113   -1.915573   -0.000738
C     -1.230801    1.463849    0.041504
C     -2.008034    0.195639   -0.033844
O     -1.533840   -0.871176   -0.411396
O      3.631798   -2.295181    0.982921
O     -3.364687    0.143976    0.332082
H     -4.348737   -2.927595    1.215769
H     -3.346906   -1.775831    2.130043
H     -2.695676   -2.652624    0.634460
H      4.726735   -0.534885    1.372043
H      4.856158   -1.872838    2.557510
H      3.385890   -0.880477    2.515373
H     -5.123715   -0.814524    0.656679
H     -4.264137   -1.402210   -0.777112
H      0.905446   -3.254243   -2.462826
H     -0.335969    3.667401    1.445265
H     -1.422469    4.691556    0.347756
H      0.210467   -0.934267   -2.698131
H     -0.539218    3.371032   -1.621002
H      0.947637    3.823439   -0.617829
H      2.498778   -3.919781   -0.756468
H     -2.897470    2.603607    0.783749
H      0.747331    1.450826   -2.285055
H      2.015915    1.793687   -1.129249
H      2.758539    0.112727    0.560131
H      0.671000    1.937959    0.761347
