73

C     -6.199631   -3.333335    1.222070
C      5.635655    0.923063    1.797156
C     -5.147903    0.190900    1.551762
C     -1.320135   -2.257057    0.641947
C     -5.327134   -3.075985    0.248324
C      5.666865    0.803650    0.242366
C      7.062543   -3.989673    0.235570
C      7.269017   -3.151896   -0.835944
C      2.031832    2.618183   -1.799998
C     -3.013307    4.176451   -1.837362
C      0.705905    2.367428   -1.603472
C     -2.435664    2.943772   -1.820819
C      3.018741    1.691626   -1.442297
C     -2.935561    4.919304   -0.669589
C      6.139371   -3.618199    1.193158
C      6.565423   -1.946514   -0.962611
C     -5.407606   -1.777627   -0.435713
C      1.229092    0.285076   -0.692995
C     -1.730846    3.163357    0.408269
C     -3.064018   -1.509828   -0.967855
C     -2.900416    0.591416    0.758650
C     -3.905533   -0.513926    0.989154
C     -1.746579   -1.197772   -0.335323
C      0.253261    1.167325   -1.033058
C     -1.786293    2.392528   -0.732853
C      2.616902    0.512462   -0.881304
C     -2.300493    4.417739    0.442154
C      5.431667   -2.411548    1.070682
C      5.654392   -1.593679   -0.004206
C     -1.191439    1.045059   -0.850405
C      3.543074   -0.467407   -0.405705
F      4.520297   -2.025674    1.998939
N     -4.216007   -1.029225   -0.303761
N      4.902510   -0.338331   -0.102964
N     -1.629013    0.154571    0.214383
O     -2.253513    5.219048    1.598089
O      3.016639   -1.651663   -0.234268
H     -6.961168   -2.613333    1.521068
H     -6.193389   -4.265621    1.761935
H      4.603078    0.957421    2.160252
H      6.226469    0.063609    2.165900
H      6.227718    1.844900    2.002114
H     -4.823759    0.929170    2.338990
H     -5.612316    0.803602    0.751827
H     -5.829308   -0.502427    2.050060
H     -1.087313   -1.804748    1.632242
H     -2.084413   -3.068657    0.734833
H     -0.388800   -2.791626    0.302231
H     -4.592834   -3.831858   -0.002083
H      6.769733    0.586472    0.053653
H      5.399996    1.773621   -0.152883
H      7.607291   -4.925138    0.338026
H      7.987583   -3.428956   -1.589632
H      2.388854    3.561575   -2.245960
H     -3.511917    4.549779   -2.735684
H      0.012860    3.132115   -1.906226
H     -2.501197    2.358516   -2.753844
H      4.046490    1.940886   -1.672476
H     -3.404274    5.901894   -0.696550
H      5.947518   -4.249947    2.050241
H      6.755120   -1.313502   -1.819489
H     -5.549733   -1.976849   -1.537406
H     -6.285834   -1.178450   -0.139141
H      0.931218   -0.635696   -0.234575
H     -1.239066    2.797535    1.277720
H     -3.126936   -2.632201   -1.030794
H     -3.110894   -1.147993   -2.034347
H     -2.729164    1.042205    1.761002
H     -3.385582    1.278355    0.040656
H     -3.575110   -1.265396    1.716549
H     -1.021597   -1.231925   -1.204276
H     -1.585126    0.571479   -1.797505
H     -3.056291    5.077570    2.233397
