52

C      4.638043    2.072305   -0.012495
C     -2.494291    1.695648    0.589592
C     -4.802001    1.721463   -2.178373
C      7.966135    0.332148    0.169621
C      6.939053    1.267342    0.048047
C      7.555142   -0.956476    0.393981
C     -1.554546   -1.065939   -1.990185
C      0.212385   -1.526468    1.903389
C     -0.937963   -0.786106    1.744076
C     -2.385436    0.198447   -1.994423
C     -5.174833    0.186234    1.311418
C     -3.768999   -0.254545    1.476701
C      0.178538   -1.932557   -0.413824
C      5.618837    0.965328    0.138723
C     -0.978038   -1.192083   -0.594910
C      0.792363   -2.119587    0.795430
C     -1.558398   -0.601064    0.500046
C      6.225550   -1.263756    0.485813
C     -3.421669   -0.016963   -0.919902
C     -5.485117    0.832290    0.034936
C      5.207310   -0.362826    0.369589
C      3.685297   -2.005416    0.686648
C     -2.812529    0.228118    0.436231
N      3.989765   -0.792757    0.478075
N     -4.559065    0.857959   -1.053239
O     -6.611717    1.380092   -0.092709
S      2.258442   -3.079952    0.907477
S      5.346877   -2.785607    0.763023
H      4.981816    2.827948   -0.733048
H      4.386476    2.535925    0.968942
H      3.714999    1.613708   -0.455100
H     -1.465960    1.853204    0.985716
H     -3.192530    2.131795    1.313808
H     -2.624964    2.247616   -0.365417
H     -5.409444    2.621328   -1.867377
H     -5.304696    1.155669   -2.991846
H     -3.832354    2.123055   -2.592777
H      9.004012    0.591550    0.094728
H      7.262615    2.292752   -0.130376
H      8.271659   -1.743627    0.500920
H     -2.261406   -1.924577   -2.080090
H     -0.767880   -1.067624   -2.743597
H      0.701493   -1.679822    2.843675
H     -1.375778   -0.330046    2.624740
H     -1.694906    1.030281   -1.723260
H     -2.864312    0.369575   -2.975271
H     -5.879260   -0.666659    1.531415
H     -5.401750    0.935103    2.125482
H     -3.743290   -1.382987    1.441698
H     -3.385949   -0.011491    2.505031
H      0.603214   -2.385071   -1.323562
H     -3.790939   -1.058547   -0.937191
