49

C     -3.600752    0.850845    1.068857
C     -4.221118   -2.064048   -1.927684
C      7.807840   -0.850735   -1.609382
C      7.405937   -1.956288   -0.912567
C      7.165957    0.349299   -1.352837
C     -1.674284   -1.285658    1.452410
C      0.768299    2.117785    0.905206
C     -0.473497    2.087904    0.320163
C     -2.511883   -1.603398    0.274241
C     -4.183753    1.704155   -1.868313
C     -2.990588    1.966570   -1.011671
C      0.446879   -0.012609    1.830864
C     -0.813481   -0.066879    1.249232
C      1.266213    1.084205    1.670314
C     -1.262413    0.998139    0.491823
C      6.406286   -1.904190    0.011556
C      6.177461    0.386762   -0.434976
C     -2.660165   -0.502076   -0.727630
C     -4.748281    0.338738   -1.705544
C      5.719799   -0.714885    0.313110
C      4.158105    0.550361    1.414981
C     -2.621392    0.849088   -0.088647
F      6.074065   -3.067251    0.659435
N      4.777683   -0.493395    1.134273
N     -3.881187   -0.747039   -1.457706
O     -5.995854    0.120408   -1.783789
S      2.901492    1.170936    2.416673
S      5.080720    1.691051    0.218789
H     -3.101665    1.072899    2.041788
H     -4.186550   -0.084676    1.134167
H     -4.367737    1.672118    0.956515
H     -5.080898   -2.494239   -1.340574
H     -3.383897   -2.774712   -1.887106
H     -4.578953   -2.062174   -2.989624
H      8.583586   -0.883934   -2.328567
H      7.901346   -2.920541   -1.099598
H      7.428143    1.268951   -1.864634
H     -2.302240   -1.164453    2.380751
H     -0.972179   -2.110997    1.691638
H      1.382020    2.993993    0.757224
H     -0.864357    2.905619   -0.283389
H     -3.530457   -1.948185    0.612790
H     -2.079654   -2.487517   -0.260092
H     -4.011719    1.923387   -2.942891
H     -5.027969    2.398412   -1.582447
H     -2.148611    2.233452   -1.715011
H     -3.179002    2.902210   -0.445283
H      0.825226   -0.845277    2.436243
H     -1.822520   -0.592129   -1.465958
