30

C     -2.159322   -1.824131    1.208100
C     -0.986092   -1.021786    1.723387
C     -1.889528   -2.023650   -0.266036
C      2.360605   -0.092229   -2.548319
C      3.199886    0.832257   -1.984775
C      1.337263   -0.339648   -1.658652
C      2.681488    1.141513   -0.754107
C      0.136132   -1.184517   -1.659144
C      0.700459    0.427896    0.600171
C     -0.977882    1.971797    0.973782
C     -0.615354   -0.232808    0.479593
Br     4.778228    1.519167   -2.812989
Br     3.499789    2.393479    0.426242
N     -1.640593    3.012474    1.415689
N      0.417320    1.748256    1.108399
N     -1.547633    0.874204    0.275257
N     -0.762521   -1.196673   -0.561940
N      1.538830    0.414854   -0.566661
O     -0.056213   -1.896217   -2.679691
H     -3.113788   -1.285539    1.386900
H     -2.232272   -2.815624    1.681279
H     -0.114950   -1.671183    1.948801
H     -1.272242   -0.395287    2.565586
H     -2.773483   -1.676699   -0.880053
H     -1.715845   -3.096118   -0.509607
H      2.487770   -0.539800   -3.516126
H      1.238373   -0.141516    1.441830
H     -1.180082    3.781975    1.916594
H      1.104061    2.423495    1.505101
H     -2.442404    0.892059   -0.258610
