49

C     -2.282456   -0.712498    1.620034
C     -4.883371    1.976608   -0.184575
C      1.321972   -1.606415   -0.854298
C     -0.659845    1.741356    0.681062
C      6.222328    0.018801   -0.776999
C     -0.051503   -1.743274   -0.710909
C      5.495260   -0.226585   -1.909236
C     -2.090609    1.864929    0.367173
C     -4.336300   -1.815379   -0.128664
C     -2.916432   -1.707449   -0.594230
C      1.353944    0.600780   -0.006434
C      4.218181   -0.092714    0.482679
C      2.038108   -0.506729   -0.529659
C     -0.006591    0.515936    0.159664
C      5.567581    0.090306    0.443363
C      3.479937   -0.341775   -0.669751
C     -0.706722   -0.638865   -0.187119
C      4.108515   -0.413791   -1.882216
C     -2.716573    0.698060   -0.319619
C     -4.974640   -0.467837   -0.116372
C     -2.178290   -0.630817    0.119269
C      6.294059    0.366558    1.686021
Cl     3.270050   -0.693866   -3.407899
F      7.624392    0.664869    1.455970
F      5.727231    1.411050    2.371444
F      6.255662   -0.754277    2.516120
N     -4.144739    0.713448   -0.201462
O     -6.204189   -0.370495   -0.019857
H     -3.237086   -1.154750    1.976641
H     -2.238886    0.302719    2.037202
H     -1.486061   -1.317694    2.065585
H     -5.675482    1.917235    0.612371
H     -5.339970    2.080518   -1.177964
H     -4.164888    2.771292    0.048303
H      1.829232   -2.495675   -1.270648
H     -0.088632    2.616082    0.221275
H     -0.437192    1.796315    1.767184
H      7.280662    0.161455   -0.783424
H     -0.582884   -2.604097   -0.969174
H      5.984799   -0.280685   -2.853939
H     -2.673085    2.124922    1.257045
H     -2.211504    2.730399   -0.354539
H     -4.928716   -2.412427   -0.860477
H     -4.434608   -2.304462    0.841737
H     -3.007106   -1.346936   -1.677302
H     -2.491301   -2.718807   -0.531147
H      1.931114    1.479632    0.265977
H      3.665652   -0.046273    1.426335
H     -2.519017    0.761304   -1.444540
