59

C      8.621619    0.350633   -0.091792
C     -4.137500   -0.544617    1.771377
C     -6.555767   -1.492129   -0.599203
C     -0.123077    0.615272    1.502517
C     -2.380264   -0.803969   -1.864086
C     -1.506729    0.657478    1.507324
C     -3.737954   -1.301323   -1.348181
C     -5.533415    2.061362    0.268364
C      5.009805   -1.925102   -0.884626
C     -4.203338    1.718189    0.867326
C      6.228151   -1.666852    0.055661
C     -0.237996   -0.330664   -0.651356
C      2.653857   -0.943852   -0.313141
C      2.702000    1.006618    1.071808
C      7.172541    0.764673   -0.044703
C      0.528697    0.110672    0.400084
C     -1.619684   -0.297973   -0.668046
C      4.027134   -0.940556   -0.287526
C      2.004680    0.059715    0.386965
C     -2.268123    0.206992    0.434988
C      4.106439    1.015356    1.102804
C     -4.382348   -0.136954   -0.690842
C     -6.428292    0.896770    0.091297
C      4.758075    0.029040    0.408602
C     -3.739246    0.312387    0.578877
N     -5.795337   -0.299388   -0.415127
N      6.155227   -0.190017    0.157291
N      4.801105    1.989936    1.856338
O      6.989251    1.995735   -0.198338
O     -7.652085    0.944778    0.362345
O      6.011362    1.818031    2.464848
O      4.247495    3.107555    1.969581
H      8.718522   -0.721002    0.071697
H      9.093154    0.949980    0.741284
H      9.033023    0.727873   -1.039062
H     -3.510116   -1.471811    1.757923
H     -3.920883    0.078110    2.675123
H     -5.211815   -0.761450    1.795927
H     -6.659991   -2.102570    0.320719
H     -6.201774   -2.156521   -1.399348
H     -7.614757   -1.208387   -0.873610
H      0.444712    0.971338    2.348691
H     -2.611557    0.051322   -2.540729
H     -1.835676   -1.578907   -2.400436
H     -1.954267    1.068547    2.412600
H     -4.376713   -1.635415   -2.182790
H     -3.521359   -2.095862   -0.615642
H     -5.384824    2.625201   -0.691709
H     -6.048809    2.777082    0.957063
H      4.678564   -2.962519   -0.764428
H      5.264368   -1.611302   -1.902090
H     -4.159811    1.862453    1.968602
H     -3.404128    2.396556    0.446936
H      7.161531   -1.939284   -0.422770
H      6.091386   -2.159880    1.008335
H      0.256132   -0.733318   -1.531763
H      2.071022   -1.682373   -0.845975
H      2.202231    1.791672    1.619952
H     -4.314445    0.732671   -1.408334
