59

C     -7.247573    0.439996   -1.916826
C      3.951115    1.757065    0.117335
C      6.455135   -1.071742    1.196089
C     -0.084270    0.976074   -1.280304
C      2.255620   -1.185253    1.576587
C      1.281190    1.035336   -1.356092
C      3.739039   -0.878925    1.548151
C      5.509061    0.734790   -2.058556
C     -4.932440   -2.154886    0.990358
C      4.041287    0.415826   -1.993881
C     -6.111063   -1.282971    1.475564
C      0.151074   -0.477353    0.623887
C     -2.633802   -1.031475    0.331568
C     -2.865784    1.217699   -0.488372
C     -7.250697   -0.146157   -0.563929
C     -0.626340    0.206869   -0.272916
C      1.526016   -0.407988    0.535693
C     -4.002433   -1.099577    0.463094
C     -2.071216    0.128073   -0.145033
C      2.099044    0.344796   -0.450185
C     -4.257780    1.154108   -0.355007
C      4.224442   -0.701388    0.147829
C      6.283065    0.183309   -0.924240
C     -4.820492   -0.003590    0.114922
C      3.566070    0.452252   -0.566778
N      5.658150   -0.527756    0.135137
N     -6.174157   -0.414802    0.272875
N     -5.050212    2.279859   -0.660490
O     -8.411458   -0.452218   -0.115126
O      7.520788    0.365630   -0.927180
O     -6.217122    2.477968    0.033344
O     -4.754017    3.118442   -1.533116
H     -7.713248    1.424606   -1.991871
H     -7.881427   -0.225605   -2.579137
H     -6.226373    0.360502   -2.326674
H      4.337356    2.508480   -0.601460
H      3.095433    2.215096    0.649937
H      4.705775    1.540970    0.920444
H      6.301185   -2.159441    1.230714
H      6.172870   -0.677387    2.195050
H      7.532328   -0.826438    1.066764
H     -0.721064    1.519467   -1.991220
H      2.083506   -2.257787    1.359126
H      1.901263   -0.985852    2.597528
H      1.716958    1.636111   -2.131516
H      3.993516    0.032465    2.127022
H      4.284890   -1.728836    1.999860
H      5.587590    1.853818   -2.082561
H      5.880358    0.290032   -3.026542
H     -5.346367   -2.757211    0.159441
H     -4.495306   -2.728232    1.810670
H      3.536614    1.115385   -2.667961
H      3.942862   -0.646362   -2.330590
H     -7.019322   -1.847338    1.638181
H     -5.734471   -0.668978    2.294998
H     -0.323379   -1.075200    1.410883
H     -1.978793   -1.847670    0.581754
H     -2.391029    2.108955   -0.857427
H      4.008040   -1.625560   -0.439461
