76

C     -7.486097    4.259384    0.999866
C     -5.222756   -4.857508   -1.470235
C     -7.791752    2.980623    1.406582
C     -6.537147    4.533143    0.024568
C     -5.649832   -3.578349   -1.245938
C     -4.311812   -5.398733   -0.568266
C     -7.126793    1.939359    0.819534
C     -5.887847    3.464491   -0.544940
C     -5.218816   -2.833253   -0.187224
C     -3.883872   -4.651474    0.487421
C      6.486003    0.976803    1.562184
C      8.878665    1.314723    1.201895
C     -0.092497   -1.907449   -0.307826
C      5.161737    1.018503    0.880827
C      9.988874    1.370769    0.356650
C     -1.276857   -2.199685    0.361572
C     -2.446765    1.211081    1.257927
C     -3.546700    1.592857    0.349772
C     -0.444682    0.387325    0.041144
C      6.245054    0.506103   -1.283557
C      8.644426    0.866952   -1.511169
C      2.804984   -0.399014   -0.265922
C     -5.456172    1.038239   -0.789138
C     -3.882183   -2.575703    1.859556
C     -6.175400    2.178577   -0.155172
C     -4.308862   -3.370328    0.715623
C      7.638086    1.029814    0.671276
C      0.331093   -0.613850   -0.472444
C     -1.637880    0.103484    0.715784
C      7.531242    0.810993   -0.662236
C      5.182740    0.084363   -0.297843
C      9.887033    1.150663   -0.991589
C      1.603652   -0.312471   -1.190007
C     -2.080244   -1.216151    0.889075
N      3.938211    0.067229   -1.021034
O     11.027080    1.218259   -1.793036
O      1.728226   -1.075125   -2.327867
O     -4.435434    0.593700    0.087813
O     -3.249397   -1.408813    1.557662
H     -8.008776    5.112652    1.459528
H     -5.587239   -5.412576   -2.318288
H     -8.527343    2.747404    2.163306
H     -6.296474    5.542478   -0.296619
H     -6.367817   -3.103995   -1.924601
H     -3.995586   -6.410181   -0.775151
H     -7.309218    0.907988    1.082675
H     -5.130004    3.629108   -1.320679
H     -5.581111   -1.841669   -0.038358
H     -3.161840   -5.099979    1.185130
H      6.610756    0.061824    2.209644
H      6.577371    1.827349    2.302623
H      8.981502    1.491043    2.257128
H      0.469443   -2.759349   -0.687555
H      4.991352    2.072258    0.556984
H      4.395485    0.665268    1.611737
H     10.983390    1.598355    0.771985
H     -1.579358   -3.229032    0.491938
H     -1.803884    2.080892    1.558681
H     -2.906999    0.880344    2.239111
H     -4.094032    2.471537    0.775605
H     -3.115367    1.914441   -0.638124
H     -0.130233    1.423205   -0.075435
H      6.403958   -0.371689   -1.962208
H      5.873420    1.369120   -1.886407
H      8.559773    0.693466   -2.564948
H      2.575851    0.220597    0.611696
H      2.940684   -1.471281   -0.017464
H     -4.983186    1.398032   -1.745303
H     -6.172831    0.242096   -0.955409
H     -4.785276   -2.362717    2.530587
H     -3.267638   -3.258788    2.526360
H      5.422740   -0.919537    0.053901
H      1.579952    0.765093   -1.521158
H      4.048114   -0.500138   -1.884840
H     11.010139    1.067108   -2.780171
H      2.452971   -1.740258   -2.157190
