76

C     -6.972227   -4.948371    0.469634
C     -5.630650    6.621678    0.514292
C     -5.660542   -5.320370    0.738232
C     -7.120941   -3.755459   -0.218552
C     -5.816317    5.273863    0.726915
C     -4.388884    7.046387    0.056630
C     -4.583030   -4.556228    0.348850
C     -6.071404   -2.962563   -0.625222
C     -4.792541    4.358513    0.492175
C     -3.407825    6.134010   -0.164784
C      6.281634   -1.904087    1.572824
C      8.500393   -1.002920    0.742972
C      0.519019    1.117761   -1.009312
C      5.220677   -0.852343    1.883162
C      9.170313   -0.314806   -0.262279
C     -0.498012    2.003576   -0.732731
C     -3.038721   -0.272464    0.909223
C     -4.154967   -0.448213   -0.117351
C     -0.778649   -0.612170   -0.043296
C      5.031397   -1.067714   -0.600047
C      7.162764   -0.076013   -1.545506
C      2.190522   -1.701691    0.192861
C     -3.568519   -2.607452   -0.766844
C     -2.452835    3.821981   -0.233810
C     -4.786576   -3.368442   -0.339093
C     -3.559414    4.756164    0.040593
C      7.172983   -1.208770    0.576612
C      0.373628   -0.195545   -0.663362
C     -1.824291    0.275565    0.246742
C      6.499794   -0.761114   -0.541126
C      4.369374   -0.562732    0.618554
C      8.519544    0.141882   -1.388025
C      1.464434   -1.182486   -0.968992
C     -1.680482    1.585060   -0.100056
N      3.078531   -0.967182    0.946306
O      9.210725    0.834585   -2.392575
O      2.219102   -0.769282   -2.035373
O     -3.788675   -1.310816   -1.110966
O     -2.712730    2.493816    0.176819
H     -7.796165   -5.557128    0.775404
H     -6.423085    7.353698    0.687762
H     -5.513920   -6.246822    1.275128
H     -8.131114   -3.422199   -0.451347
H     -6.767021    4.911022    1.077049
H     -4.229247    8.108117   -0.111300
H     -3.597374   -4.908956    0.596330
H     -6.228530   -2.019509   -1.171405
H     -4.956634    3.306515    0.662473
H     -2.444730    6.476576   -0.520199
H      6.805000   -2.142789    2.498338
H      5.816413   -2.755943    1.071207
H      8.986887   -1.371835    1.638239
H      1.415093    1.471229   -1.499597
H      4.603604   -1.126219    2.734892
H      5.800294    0.059626    2.157854
H     10.237085   -0.159524   -0.108309
H     -0.394142    3.045968   -1.000893
H     -2.810707   -1.202888    1.441072
H     -3.405293    0.464333    1.649850
H     -4.389184    0.540289   -0.524546
H     -5.046581   -0.768576    0.460820
H     -0.823879   -1.659882    0.217697
H      5.001140   -2.187561   -0.685894
H      4.689769   -0.554079   -1.530354
H      6.608649    0.264103   -2.406737
H      1.379841   -2.095263    0.917528
H      2.627425   -2.712013   -0.147195
H     -3.132426   -3.161154   -1.598879
H     -2.864431   -2.725844    0.087735
H     -1.519794    4.223298    0.250308
H     -2.218731    3.845889   -1.330531
H      4.375788    0.563932    0.546307
H      0.904979   -2.109650   -1.404733
H      2.865492   -0.935973    1.991597
H      9.240212    1.861080   -2.270765
H      1.638714   -0.407482   -2.760167
