49

C     -2.763852    0.629917   -1.682043
C     -5.142542   -1.482609   -0.173485
C      7.542379   -1.313589    0.346811
C      7.743756    0.066117    0.318664
C      6.251991   -1.806435    0.294207
C      6.686004    0.949186    0.239627
C      1.296520    1.593956   -0.055506
C     -1.277709   -1.852899   -0.091768
C     -0.090120    1.712007   -0.130131
C     -2.442006   -1.558877    0.783746
C     -4.284047    2.145099    0.683119
C     -2.867605    2.134453    0.220595
C      0.979107   -0.772453   -0.005863
C     -0.390241   -0.638907   -0.080030
C      1.824333    0.315567    0.007285
C     -0.917262    0.625568   -0.142396
C      5.214873   -0.904366    0.215700
C      5.411998    0.466282    0.187588
C     -3.088087   -0.245206    0.643973
C     -5.099737    1.018782    0.149051
C      3.282994    0.112244    0.087981
C     -2.383143    0.763777   -0.221749
N      3.893164   -1.083395    0.152725
N      4.207301    1.067576    0.108856
N     -4.466829   -0.275068    0.194412
O     -6.243808    1.133230   -0.311611
H     -2.656008    1.630865   -2.154632
H     -2.047660   -0.037229   -2.235277
H     -3.807778    0.317840   -1.830094
H     -4.546640   -2.083961   -0.919340
H     -6.116114   -1.309030   -0.651991
H     -5.248429   -2.154130    0.717598
H      8.400489   -1.947460    0.408622
H      8.737923    0.485123    0.358086
H      6.064901   -2.883390    0.314639
H      6.810825    2.028289    0.215934
H      1.961969    2.445343   -0.045009
H     -1.561485   -2.136980   -1.119444
H     -0.685709   -2.676066    0.327548
H     -0.472022    2.744585   -0.178557
H     -3.223048   -2.355770    0.604486
H     -2.109316   -1.771007    1.843721
H     -4.292785    2.015727    1.804324
H     -4.790641    3.106858    0.479646
H     -2.213359    2.487798    1.056963
H     -2.765731    2.883108   -0.591173
H      1.383414   -1.791429    0.043347
H     -3.136727    0.222931    1.673285
H      3.436498   -2.021970    0.155439
