62

C      5.423855    0.534759   -1.123577
C      6.084021    1.578094    1.008577
C      7.669909    0.119884   -0.118303
C     -4.625452    0.446661   -1.467989
C     -5.936262    2.933349    0.886698
C      3.095550   -2.568480   -2.351598
C      1.789743   -2.157067   -2.100007
C      4.068234   -2.371274   -1.396811
C     -1.004924   -1.859337   -1.268805
C     -1.826941    1.575332    1.118564
C     -2.299853   -1.458655   -1.057012
C     -3.164410    2.161419    0.704720
C     -6.246457   -0.903528    0.659641
C     -4.828732   -1.199978    0.322401
C     -0.278104   -0.040320    0.060774
C      2.432026   -1.371290    0.016668
C      1.436687   -1.553532   -0.915937
C      0.052404   -1.143981   -0.702915
C     -1.583743    0.364422    0.274690
C      3.751626   -1.762572   -0.181758
C     -2.621478   -0.348573   -0.288378
C     -4.187716    1.074189    0.915801
C     -6.555740    0.550158    0.750801
C      5.648396   -0.781717    0.984060
C      6.168627    0.310947    0.141400
C     -4.043058   -0.015088   -0.131335
N      4.701024   -1.561607    0.811154
N     -5.543300    1.546696    0.853323
O     -7.772050    0.865880    0.732966
O      6.375820   -0.953571    2.203237
H      4.326118    0.476198   -1.045658
H      5.790758   -0.148281   -1.928812
H      5.620533    1.593619   -1.494306
H      7.002049    1.693870    1.614806
H      5.156589    1.528218    1.611657
H      6.030051    2.423806    0.297376
H      7.801095   -0.408576   -1.099228
H      8.130460    1.125020   -0.181837
H      8.065582   -0.470988    0.729695
H     -3.782888    0.871980   -2.059041
H     -5.377278    1.232092   -1.350579
H     -5.000747   -0.459031   -1.989037
H     -6.894483    3.105873    0.349131
H     -6.148545    3.234237    1.953006
H     -5.183672    3.610347    0.433585
H      3.391963   -3.045208   -3.275490
H      1.030651   -2.321648   -2.868193
H      5.098851   -2.669419   -1.535397
H     -0.724712   -2.722176   -1.864444
H     -1.006951    2.313099    1.036609
H     -1.948390    1.222690    2.165301
H     -3.078164   -2.062482   -1.528073
H     -3.429982    3.043203    1.315464
H     -3.077683    2.462651   -0.347818
H     -6.541712   -1.355736    1.643740
H     -6.935132   -1.313348   -0.117631
H     -4.816216   -1.998616   -0.463622
H     -4.331116   -1.649846    1.217044
H      0.519116    0.556488    0.527641
H      2.154607   -0.890529    0.962068
H     -4.025299    0.610522    1.902573
H      6.004848   -1.599245    2.862381
