56

C     -3.462483    1.759003   -0.290430
C     -6.000629   -0.683707   -1.600192
C      4.014068   -0.260342    2.752112
C      5.359757   -0.268830    2.480455
C      3.073987   -0.088040    1.756079
C      7.148011   -0.060514    0.552024
C      6.880317    0.146015   -0.909196
C      4.536865    0.381333   -2.107321
C      0.628076    1.202679    0.472057
C     -1.806706   -1.592523   -1.705949
C      3.180075    0.400126   -1.898583
C     -0.740561    1.175363    0.615606
C     -3.177292   -0.973919   -1.887163
C     -4.721387   -0.236114    1.957851
C     -3.344861    0.318622    1.664435
C      0.389019   -0.562118   -1.061958
C      5.816411   -0.100020    1.163284
C      5.424980    0.212344   -1.043842
C      1.219011    0.310077   -0.390663
C     -0.985986   -0.595997   -0.923715
C      2.658853    0.248931   -0.605832
C      3.515627    0.079124    0.460266
C     -1.562024    0.297730   -0.061283
C     -3.709551   -0.725067   -0.502221
C     -5.646278   -0.060698    0.784257
C      4.880951    0.067563    0.200851
C     -3.026685    0.394723    0.203828
N     -5.126053   -0.497087   -0.468821
O     -6.789135    0.431131    0.892418
H     -3.332500    2.475101    0.547613
H     -2.808181    2.090728   -1.147048
H     -4.517323    1.787289   -0.583920
H     -6.968115   -0.166437   -1.423034
H     -5.551602   -0.255066   -2.543002
H     -6.199689   -1.753329   -1.826364
H      3.644280   -0.388694    3.758231
H      6.102635   -0.402538    3.251073
H      2.022637   -0.089365    1.933969
H      7.746659   -0.973522    0.756793
H      7.745962    0.811866    0.950849
H      7.226744   -0.748505   -1.492417
H      7.397857    1.035277   -1.322346
H      4.945434    0.499063   -3.115234
H      1.235599    1.937910    1.037370
H     -1.327997   -1.847221   -2.657677
H     -1.956694   -2.500040   -1.071992
H      2.448554    0.526616   -2.676762
H     -1.155038    1.914991    1.321705
H     -3.865116   -1.646259   -2.416350
H     -3.045119    0.007967   -2.406082
H     -4.637506   -1.310865    2.232326
H     -5.163103    0.269282    2.852057
H     -3.279256    1.305598    2.171608
H     -2.606457   -0.333526    2.180441
H      0.789315   -1.307227   -1.771193
H     -3.518357   -1.658882    0.085679
