43

C     -2.500178   -0.145681    1.633757
C      1.541215   -1.374312    0.228447
C     -0.766680    2.131775    0.052894
C      0.145011   -1.468720    0.242115
C     -1.921337    1.928828   -0.901883
C     -3.929302   -1.566009   -0.891848
C     -2.613530   -1.721475   -0.169597
C      1.436738    0.990155    0.104423
C      4.248180    0.918370    0.929450
C      6.418450    0.256199    0.122617
C      2.175809   -0.166301    0.160845
C      0.038813    0.892936    0.118152
C      5.619186    1.048097    0.911002
C      3.630222   -0.025191    0.144391
C     -0.596457   -0.315704    0.185967
C      5.781491   -0.683477   -0.657093
C     -2.611265    0.624700   -0.756361
C     -4.675656   -0.351791   -0.488160
C      4.408980   -0.829486   -0.653092
C     -2.058648   -0.353779    0.203131
F      6.193514    1.994777    1.703146
F      6.533209   -1.489052   -1.453085
F      3.853423   -1.791432   -1.460761
N     -4.038924    0.781965   -0.408042
O     -6.041834   -0.366360   -0.186948
H     -2.590328    0.888630    1.943919
H     -1.734572   -0.632413    2.273041
H     -3.456792   -0.653444    1.861311
H      2.156736   -2.270410    0.271837
H     -1.078317    2.511059    1.042753
H     -0.124533    2.926334   -0.382606
H     -0.305209   -2.460106    0.297508
H     -2.648205    2.767986   -0.752777
H     -1.514279    2.066220   -1.925441
H     -3.811000   -1.521341   -1.998644
H     -4.591500   -2.443996   -0.636462
H     -1.905623   -2.164755   -0.927599
H     -2.651634   -2.413009    0.677984
H      1.885598    1.972858    0.049847
H      3.675446    1.589381    1.587223
H      7.510505    0.354225    0.103162
H     -2.644130    0.135837   -1.767478
H     -6.442592    0.427913    0.295543
