44

C      2.522914   -1.205493    1.296058
C     -6.315689    0.647411    0.203753
C     -5.583727    1.716839    0.671431
C     -5.710554   -0.494399   -0.232098
C     -4.208322    1.598135    0.686116
C     -1.377302    0.674062    1.378395
C      0.613704   -0.855861   -2.085830
C     -0.014438    0.533084    1.352940
C      1.943833   -1.456235   -1.680288
C      4.118450    1.375183    0.191645
C      2.806766    1.175988    0.876917
C     -1.441319   -0.176405   -0.839002
C     -3.724930   -1.837111   -0.681061
C     -2.123666    0.311423    0.253952
C     -0.051057   -0.316026   -0.853979
C     -4.327572   -0.599949   -0.211636
C     -3.572921    0.454019    0.250625
C      0.674267    0.045022    0.261275
C      2.738644   -0.361485   -1.013314
C      4.832133    0.107059   -0.112519
C      2.137091   -0.060375    0.353119
N     -3.257557   -2.837925   -1.048069
N      4.116319   -0.796508   -0.738776
O      6.138869   -0.099714    0.236057
H      3.326801   -0.907507    1.992154
H      2.842661   -2.100068    0.726336
H      1.644609   -1.480651    1.943073
H     -7.405492    0.759000    0.199156
H     -6.058456    2.624409    1.018221
H     -6.336669   -1.308793   -0.591391
H     -3.602451    2.441080    1.056064
H     -1.912178    1.058303    2.239644
H      0.859238    0.038567   -2.724942
H     -0.031135   -1.571557   -2.618259
H      0.534275    0.825348    2.246029
H      1.733541   -2.295269   -0.974566
H      2.460098   -1.809401   -2.578339
H      3.990942    1.936995   -0.775029
H      4.770389    2.027487    0.829947
H      2.892565    1.185109    1.990196
H      2.149037    2.044666    0.586780
H     -1.958188   -0.470951   -1.737319
H      2.758029    0.524171   -1.652647
H      6.408444   -1.061675    0.473437
