43

C     -2.333608    1.348896   -1.484801
C      1.453768   -0.428357   -1.378983
C     -0.620033    0.654834    2.194853
C      0.096678   -0.232775   -1.451514
C     -1.804522    1.533679    1.735168
C     -4.045002   -1.210558   -0.096600
C     -2.774965   -0.965253   -0.885534
C      1.446385    0.043928    0.938567
C      0.068136    0.253707    0.912581
C      2.147488   -0.294412   -0.187821
C     -0.591864    0.112512   -0.280861
C     -2.636677    0.624594    0.914943
C     -4.763552    0.062998    0.216862
C      3.588991   -0.476405   -0.156280
C      6.361080   -0.734883   -0.138041
C      4.401996    0.622711    0.066157
C      4.184018   -1.704089   -0.368104
C      5.768859    0.483126    0.072649
C      5.554689   -1.828353   -0.358882
C     -2.066615    0.308191   -0.418719
Cl     8.119829   -0.920740   -0.138229
F      3.891042    1.879020    0.285740
F      3.354298   -2.772527   -0.592124
F      6.584311    1.550151    0.295821
F      6.114619   -3.058581   -0.580265
N     -4.016354    1.013880    0.744649
O     -6.107097    0.244183   -0.020105
H     -1.654653    2.211695   -1.442807
H     -2.211128    0.816120   -2.472394
H     -3.397843    1.680640   -1.417962
H      2.021300   -0.702830   -2.279806
H     -1.088244   -0.230664    2.661671
H      0.038974    1.222121    2.848458
H     -0.443644   -0.344810   -2.397460
H     -2.335931    1.970303    2.606790
H     -1.345572    2.318930    1.094558
H     -3.892739   -1.831555    0.808011
H     -4.740455   -1.782417   -0.740099
H     -2.084969   -1.803019   -0.679546
H     -2.950999   -0.962808   -1.987368
H      1.937830    0.163191    1.916788
H     -2.691150   -0.357402    1.487698
H     -6.536673    1.145395    0.152339
