49

C     -2.539556   -0.533939    2.064549
C     -5.210926   -1.185771   -0.883714
C      1.331649    1.235460    0.595997
C      4.002452   -1.210558    0.255099
C     -1.060575   -2.166540   -0.036481
C     -0.027378    1.361454    0.795690
C      5.366048   -1.217746    0.053322
C     -2.526254   -1.945705   -0.205981
C     -3.453086    2.162623   -0.402541
C     -2.959195    1.566559    0.926377
C      1.091604   -1.044996    0.006808
C      3.981072    1.116693   -0.416166
C      7.403875    1.371805   -1.436725
C      1.900311    0.048007    0.204697
C      3.328566   -0.023808    0.011953
C     -0.272806   -0.951167    0.198395
C     -0.820584    0.276536    0.598103
C      6.040916   -0.093525   -0.373371
C      5.341867    1.052152   -0.600906
C     -2.819727   -0.501126   -0.433026
C     -4.465258    1.205996   -0.916978
C     -2.289216    0.259725    0.773682
N     -4.169272   -0.178467   -0.743891
O     -5.520761    1.588939   -1.472167
O      7.364664    0.189319   -0.653300
O      6.219084    2.055347   -1.022755
H     -3.532258   -0.978131    2.093343
H     -2.469915    0.238396    2.887078
H     -1.705007   -1.233432    2.274264
H     -4.967437   -1.904487   -1.689272
H     -6.173820   -0.669919   -1.048444
H     -5.282819   -1.751269    0.068657
H      1.927498    2.122822    0.763862
H      3.499328   -2.094261    0.586538
H     -0.897758   -2.912178    0.768034
H     -0.630824   -2.651002   -0.961572
H     -0.499815    2.275961    1.100915
H      5.919730   -2.129771    0.235024
H     -2.872761   -2.532591   -1.092107
H     -3.094306   -2.353835    0.654110
H     -2.609030    2.298576   -1.104714
H     -3.879792    3.152030   -0.153361
H     -3.931569    1.355651    1.474373
H     -2.466451    2.311053    1.548966
H      1.566498   -1.967780   -0.301489
H      3.450840    2.039662   -0.604365
H      7.327812    1.134847   -2.524658
H      8.281477    1.992790   -1.193595
H     -2.197140   -0.180394   -1.320111
