62

C      7.825505    0.963143   -0.418559
C      6.158260    2.178133   -1.712911
C      6.646956   -0.149249   -2.247222
C     -4.293622    1.544450    0.760301
C     -6.258818    0.932663   -2.465222
C      3.201605   -2.076007    2.749815
C      1.863324   -1.789720    2.502442
C      4.144944   -1.710252    1.806170
C     -0.836893   -0.553397    2.088125
C     -2.269645   -0.533065   -1.896495
C     -2.157154   -0.255076    1.888217
C     -3.470152    0.388275   -1.963265
C     -6.420781   -0.638411    1.013528
C     -4.969345   -0.810539    1.272676
C     -0.481698   -0.822619   -0.201474
C      2.411075   -0.807082    0.437419
C      1.438648   -1.155056    1.352806
C      0.042298   -0.844809    1.071174
C     -1.830979   -0.521588   -0.453283
C      3.757119   -1.069014    0.634886
C     -2.677637   -0.236612    0.580672
C     -4.489465   -0.206731   -1.031687
C     -6.745219    0.136094   -0.185413
C      5.423348    0.377585   -0.157617
C      6.475910    0.825328   -1.095327
C     -4.120266    0.091287    0.390557
N      4.752766   -0.708345   -0.310957
N     -5.824244    0.298798   -1.259917
O     -7.898804    0.677673   -0.253100
O      5.160783    1.183647    0.936778
H      8.593103    0.876939   -1.232974
H      7.919741    0.137257    0.307370
H      7.920298    1.931059    0.096053
H      7.065218    2.445181   -2.318682
H      5.291307    2.122720   -2.397498
H      6.051227    2.961441   -0.942603
H      5.950017    0.062678   -3.075644
H      6.574825   -1.185757   -1.872548
H      7.668631   -0.008853   -2.646632
H     -3.445280    2.141254    0.374483
H     -5.228109    1.984580    0.409141
H     -4.193124    1.592470    1.883556
H     -7.203240    1.471221   -2.267032
H     -6.516458    0.145283   -3.234388
H     -5.496235    1.574903   -2.949379
H      3.501549   -2.583433    3.678308
H      1.079533   -2.058183    3.216206
H      5.186308   -1.905208    1.944233
H     -0.421986   -0.570229    3.104045
H     -1.464114   -0.082040   -2.507281
H     -2.517438   -1.560648   -2.221174
H     -2.834938   -0.027322    2.705126
H     -3.154793    1.363011   -1.538695
H     -3.805501    0.448262   -3.014929
H     -6.952671   -1.629885    0.911006
H     -6.935805   -0.153501    1.892114
H     -4.681563   -1.856986    1.008114
H     -4.723659   -0.699972    2.347907
H      0.166570   -1.043665   -1.028651
H      2.127540   -0.306202   -0.481878
H     -4.469003   -1.314344   -1.147708
H      4.390236    1.018466    1.571574
