55

C      7.475522    2.252894   -0.789194
C     -4.153169   -0.278595   -1.731869
C     -6.286729   -0.067408    1.170051
C      7.381106    0.195429    0.529600
C     -2.248020    1.614332    1.235310
C     -0.054903    0.661936   -2.307465
C      6.796397   -0.884790    1.140925
C     -1.207458   -0.030502   -1.993202
C     -3.716484    1.256184    0.970908
C     -3.898734   -2.830192    0.140915
C     -2.886009   -2.031392   -0.606273
C     -0.342830    1.941758   -0.344358
C      6.686729    1.137453   -0.185941
C     -1.494663    1.257321   -0.020470
C      0.413844    1.676036   -1.485089
C     -1.941673    0.252498   -0.853679
C      5.414535   -1.007405    1.011042
C     -3.777286   -0.213120    0.741768
C     -5.217542   -2.116577    0.264403
C      5.295836    1.040477   -0.333802
C      4.727022   -0.039567    0.279816
C      3.297482    1.747276   -1.094479
C     -3.162149   -0.547041   -0.606762
C      4.666513   -2.139308    1.631110
F      3.751570   -1.593077    2.511798
F      5.580726   -2.939674    2.269065
F      3.938912   -2.848566    0.694228
N      4.454697    1.822836   -0.968133
N     -5.111802   -0.758447    0.742867
O     -6.305265   -2.642039   -0.018143
S      1.891613    2.590257   -1.853681
S      2.969294    0.155886   -0.113095
H      8.073895    2.796191   -0.030454
H      6.821762    2.942068   -1.343709
H      8.176128    1.797067   -1.523872
H     -4.622353   -1.220203   -2.083452
H     -3.597300    0.139418   -2.605293
H     -4.924592    0.460093   -1.395236
H     -6.221337    1.017673    0.953482
H     -6.476500   -0.175729    2.258017
H     -7.181586   -0.425827    0.587401
H      8.470740    0.294087    0.630739
H     -1.903859    1.035566    2.096497
H     -2.159619    2.700532    1.445202
H      0.522546    0.447451   -3.193186
H      7.370262   -1.592223    1.686213
H     -1.505298   -0.807878   -2.688286
H     -4.257014    1.545132    1.893833
H     -4.095457    1.773154    0.074405
H     -3.552831   -2.977309    1.201723
H     -4.033218   -3.851711   -0.272103
H     -2.807675   -2.348880   -1.684762
H     -1.872353   -2.173370   -0.175075
H     -0.006475    2.727896    0.321575
H     -3.154950   -0.738071    1.499842
