45

C     -2.479228   -1.175975    1.840062
C      5.275627    1.894005    0.147950
C      3.914412    1.673510    0.289641
C      6.022721    0.936728   -0.489791
C      1.418289   -0.948943    0.113511
C     -1.342937    2.302825    0.195002
C      0.070581   -1.171500    0.272924
C     -2.555438    1.883732    1.035688
C     -4.228337   -1.724214   -0.423943
C     -2.765476   -1.490518   -0.564170
C      0.963932    1.361623    0.009599
C      4.101920   -0.388785   -0.816586
C      3.305998    0.535283   -0.186926
C      1.878999    0.337549   -0.020967
C     -0.390973    1.136021    0.169994
C      5.464661   -0.215125   -0.982905
C     -0.859776   -0.154315    0.305602
C     -3.180425    0.715987    0.357776
C     -4.919842   -0.831021    0.502609
C     -2.271828   -0.515141    0.481419
N     -4.456660    0.326733    0.893728
N      6.234920   -1.215887   -1.647578
O     -6.157166   -1.187502    1.034384
O      5.616559   -2.345772   -2.118080
O      7.461257   -1.113685   -1.825078
H     -2.931519   -2.184807    1.747214
H     -3.051980   -0.522208    2.529001
H     -1.481874   -1.331666    2.311070
H      5.719845    2.814317    0.542292
H      3.311695    2.432832    0.797392
H      7.081158    1.089468   -0.609663
H      2.121665   -1.780987    0.092919
H     -1.694040    2.405538   -0.868960
H     -0.875066    3.206622    0.585708
H     -0.232434   -2.214956    0.374402
H     -3.254958    2.708558    1.155312
H     -2.135464    1.522358    2.009682
H     -4.363263   -2.803677   -0.120984
H     -4.767122   -1.658337   -1.411247
H     -2.609038   -0.971203   -1.555041
H     -2.154563   -2.414616   -0.588418
H      1.338309    2.380891   -0.098054
H      3.641896   -1.286553   -1.196219
H     -3.333304    0.884612   -0.742932
H     -6.451734   -0.901798    1.976412
