68

C     -9.952925   -0.183040    2.116985
C      8.497491    1.504656    0.688036
C      5.972120   -2.533858   -2.161936
C      1.148463   -0.673356    3.403563
C      1.204600    0.795568    3.080001
C     -1.202926    0.601335   -4.311021
C     -2.363862    0.523850   -3.545887
C      0.014929    0.477240   -3.666443
C      2.292041   -1.438675    2.799935
C      1.399931    1.093734    1.634536
C      4.518251    0.288309    1.733861
C     -6.173633   -0.084597    0.140739
C     -7.253757    0.683089   -1.783010
C     -7.418060   -0.117783    0.794041
C     -8.473735    0.659085   -1.169834
C      5.816318    0.678168    1.384131
C     -1.086339    0.211480   -1.586274
C      4.612228   -1.293155   -0.023783
C      3.892335   -0.713397    1.026609
C     -2.336699    0.331152   -2.193468
C      0.065526    0.284731   -2.320213
C     -6.058443    0.311624   -1.148239
C     -8.572405    0.253050    0.143722
C      2.521808   -1.151838    1.360958
C      1.449307   -0.199100    0.822538
C      6.512889    0.097116    0.346253
C      5.881671   -0.909369   -0.362758
C     -3.551465    0.242990   -1.348800
C      1.403695    0.157577   -1.674526
N     -4.846148    0.386579   -1.879695
N      1.474491   -0.012190   -0.494951
O     -3.398670    0.031546   -0.115302
O      2.524299    0.252016   -2.544381
O     -9.820059    0.229098    0.769289
O      7.801846    0.498309    0.014673
O      6.573940   -1.500042   -1.407973
H    -10.988489    0.080208    2.442341
H     -9.845402   -1.306796    2.099930
H     -9.180859    0.275091    2.744633
H      8.122959    2.483853    0.328205
H      9.601865    1.420956    0.559403
H      8.342138    1.373440    1.798130
H      6.746660   -3.122518   -2.727155
H      5.186364   -2.123570   -2.807386
H      5.508828   -3.275226   -1.459178
H      1.259967   -0.772614    4.516511
H      0.206571   -1.143754    3.124499
H      1.980249    1.290966    3.732465
H      0.231001    1.232889    3.434478
H     -1.246467    0.754393   -5.379185
H     -3.288634    0.623082   -4.070758
H      0.918120    0.538056   -4.263644
H      3.215411   -1.254190    3.423240
H      2.066381   -2.527360    2.959865
H      0.487468    1.622936    1.221952
H      2.233659    1.770418    1.388057
H      4.051781    0.798143    2.566860
H     -5.332179   -0.400249    0.731431
H     -7.184830    1.002131   -2.811349
H     -7.505063   -0.434595    1.825281
H     -9.395412    0.951865   -1.677821
H      6.315166    1.469939    1.939465
H     -1.018688    0.058841   -0.513713
H      4.108016   -2.087193   -0.579636
H      2.333630   -2.095210    0.756328
H      0.483964   -0.730874    1.145749
H     -4.894571    0.565743   -2.930266
H      3.411341    0.406414   -2.040109
