49

C     -2.663600    1.571249   -1.020856
C     -4.881024   -2.093884   -0.215428
C      1.292173    1.211740    1.139248
C      4.198240    1.340482    0.641782
C     -0.913089   -1.085542   -1.614384
C     -0.080822    1.333061    1.128643
C      5.573106    1.238875    0.674757
C     -2.391656   -1.076085   -1.481332
C     -4.437518    1.503425    1.077792
C     -2.958095    1.327191    1.368576
C      1.192061   -0.355872   -0.591785
C      4.047710   -0.911725    0.024376
C      7.595070   -1.568577   -0.347447
C      1.970010    0.369124    0.285197
C      3.409634    0.267608    0.315987
C     -0.193230   -0.249655   -0.620506
C     -0.839313    0.607768    0.252736
C      6.211901    0.057363    0.382631
C      5.421254   -1.026922    0.053727
C     -2.814677   -0.727535   -0.058481
C     -5.016621    0.235088    0.597781
C     -2.322108    0.687173    0.178629
N     -4.230817   -0.843076    0.113725
O     -6.291342    0.131185    0.631991
O      7.568249   -0.313958    0.342191
O      6.296339   -2.095269   -0.197259
H     -1.914449    1.377472   -1.816036
H     -3.700977    1.378685   -1.359776
H     -2.579973    2.632690   -0.689863
H     -4.743603   -2.280180   -1.302647
H     -5.976349   -2.053817   -0.033687
H     -4.445323   -2.948618    0.366572
H      1.828786    1.819180    1.862095
H      3.772176    2.297040    0.880786
H     -0.653172   -0.683109   -2.618936
H     -0.521038   -2.141001   -1.605664
H     -0.605288    2.003876    1.812839
H      6.194521    2.092349    0.932031
H     -2.883441   -0.372216   -2.179650
H     -2.766492   -2.090799   -1.746963
H     -4.917297    1.845042    2.017783
H     -4.556410    2.279478    0.298142
H     -2.791899    0.760256    2.291310
H     -2.550358    2.369636    1.431700
H      1.687396   -1.031288   -1.278534
H      3.479851   -1.794975   -0.239402
H      8.377401   -2.228460    0.037545
H      7.817285   -1.361335   -1.426421
H     -2.293183   -1.403136    0.635040
