57

C     -3.745850   -0.992279   -2.065189
C     -6.212701    1.743686    0.605995
C      8.864599   -0.094276    1.075393
C      8.430423    1.212157    1.158183
C      7.965559   -1.118314    0.864314
C      7.108738    1.503604    1.032166
C      2.529117    1.261049    0.469461
C     -0.013628   -1.419790    0.505399
C     -2.253888    1.663011   -1.424185
C      3.869967    1.526357    0.653754
C     -1.371694   -1.557808    0.282603
C     -3.730430    1.635102   -1.247365
C     -5.663819   -1.944416   -0.259914
C     -4.242961   -1.798466    0.248984
C     -0.164182    0.704870   -0.529375
C      2.943496   -1.052328    0.280640
C      5.461693   -1.738453    0.505240
C      2.031809   -0.019617    0.279828
C      0.600838   -0.260711    0.088613
C      6.630884   -0.846973    0.734718
C     -1.523170    0.561953   -0.750045
C      4.290869   -0.826643    0.461635
C      6.200838    0.470420    0.819108
C      4.746306    0.469197    0.647965
C     -2.124856   -0.596339   -0.330882
C     -4.150670    0.642311   -0.217352
C     -6.309917   -0.596244   -0.228868
C     -3.575928   -0.739017   -0.569051
N     -5.547752    0.584309    0.046017
O     -7.540289   -0.432456   -0.440013
H     -2.842787   -0.680304   -2.633766
H     -4.676415   -0.550413   -2.457820
H     -3.878214   -2.107632   -2.182505
H     -5.597461    2.657692    0.484146
H     -7.253325    1.861038    0.242832
H     -6.301820    1.608177    1.724186
H      9.915772   -0.336354    1.174630
H      9.131352    2.025140    1.324245
H      8.350004   -2.146377    0.804314
H      6.728753    2.531942    1.092738
H      1.821863    2.103266    0.472960
H      0.573122   -2.197107    0.996742
H     -1.870416    2.617290   -0.975678
H     -1.963380    1.722974   -2.511754
H      4.199459    2.556139    0.798011
H     -1.800998   -2.503205    0.638346
H     -4.213485    1.424461   -2.240030
H     -4.151092    2.634442   -0.948471
H     -5.725555   -2.398161   -1.254922
H     -6.236842   -2.578744    0.459471
H     -4.267957   -1.499045    1.297041
H     -3.727743   -2.769318    0.086964
H      0.349479    1.621181   -0.853065
H      2.547975   -2.064561    0.130393
H      5.632046   -2.255658   -0.460998
H      5.395897   -2.454535    1.350409
H     -3.641631    0.931737    0.743802
