33

C      3.032659    1.061402    0.803445
C      3.155941   -0.067773   -1.348607
C      3.464323   -1.341641    0.710893
C     -2.884093   -1.579918   -0.250162
C     -3.088630   -0.422789   -1.192083
C     -1.528514   -1.334712    0.382502
C     -2.196830    0.668384   -0.623902
C     -2.896188    1.333515    0.489153
C      0.303271    0.299570   -0.299707
C      2.669884   -0.193293    0.076415
N     -4.058606    0.977628    0.842445
N     -1.050955   -0.096623   -0.187480
O      0.670658    1.385021   -0.802326
O      1.319250   -0.540094    0.165001
S     -2.117219    2.676488    1.383674
H      2.512901    1.101386    1.788253
H      4.130773    1.010956    1.046853
H      2.878441    1.982807    0.206114
H      2.900795   -0.970808   -1.944403
H      4.274033   -0.043882   -1.293782
H      2.847670    0.876392   -1.821816
H      2.884533   -1.870232    1.476603
H      3.738736   -2.093577   -0.072645
H      4.399184   -0.997151    1.156810
H     -3.691016   -1.693322    0.487789
H     -2.755823   -2.499128   -0.889380
H     -2.673414   -0.664004   -2.197140
H     -4.152773   -0.119690   -1.233168
H     -1.717882   -1.222510    1.487209
H     -0.836028   -2.176028    0.261582
H     -1.968088    1.370330   -1.446431
H     -4.600823    1.383715    1.593157
H     -2.966170    3.799581    1.245135
