50

C     -2.987489   -1.015453   -1.376723
C     -5.204812    1.680932   -0.490275
C      7.560103    1.200390    0.825831
C      5.228398   -1.202812   -1.640297
C      3.841382   -1.233617   -1.516300
C      6.013111   -0.414158   -0.830521
C      1.046595   -1.616996   -0.681799
C     -0.996190    1.949740    0.601719
C     -0.316160   -1.596641   -0.533557
C     -2.358273    1.911918   -0.111469
C     -4.278237   -1.399347    1.561516
C     -2.930216   -1.646190    0.972485
C      1.070828    0.680679    0.004906
C      4.001599    0.323511    0.240436
C      3.205923   -0.461770   -0.563226
C      1.756788   -0.468224   -0.411212
C     -0.307897    0.683222    0.149281
C      5.384568    0.358869    0.122398
C     -1.011991   -0.465613   -0.122017
C     -3.050525    0.709968    0.438049
C     -5.130209   -0.460404    0.776223
C     -2.485005   -0.598551   -0.011109
N     -4.459937    0.670530    0.226663
O     -6.361039   -0.653126    0.608678
O      6.153246    1.168947    0.955378
H     -2.297759   -0.614138   -2.160734
H     -3.987182   -0.652085   -1.612641
H     -3.021782   -2.125833   -1.393996
H     -5.460289    2.566764    0.112791
H     -4.549121    2.065997   -1.327428
H     -6.154853    1.281614   -0.906078
H      8.010752    1.689589    1.730286
H      8.020967    0.194591    0.792122
H      7.853718    1.744852   -0.105434
H      5.732885   -1.807578   -2.387090
H      3.238457   -1.857060   -2.162721
H      7.104458   -0.388253   -0.928014
H      1.574278   -2.495798   -1.000096
H     -0.428149    2.841360    0.350058
H     -1.233360    1.863717    1.687973
H     -0.855367   -2.533899   -0.757733
H     -2.907674    2.810924    0.182119
H     -2.157132    1.832805   -1.193803
H     -4.244018   -1.061034    2.629680
H     -4.836484   -2.369024    1.569111
H     -2.847288   -2.677932    0.544160
H     -2.196885   -1.646735    1.819282
H      1.648375    1.563666    0.210000
H      3.509015    0.927423    0.984024
H     -2.900122    0.740263    1.559406
