33

C      2.807671    1.473189    0.709457
C      3.863397   -0.659459    0.220987
C      2.619581    0.436667   -1.572367
C     -2.652886   -1.510490    1.384563
C     -3.131307   -0.092178    1.201880
C     -1.230113   -1.489734    0.925560
C     -2.237026    0.512979    0.141428
C     -2.786834    0.362922   -1.217634
C      0.291011    0.336898    0.034556
C      2.677606    0.206073   -0.081425
N     -3.059925    1.366251   -1.964480
N     -0.995660   -0.163316    0.341256
O      0.370713    1.487283   -0.463371
O      1.450678   -0.427085    0.277892
S     -3.094791   -1.269350   -1.875714
H      2.433978    2.367796    0.204253
H      3.882251    1.653182    0.936198
H      2.290488    1.310413    1.685307
H      3.774065   -1.682707   -0.193558
H      4.119959   -0.662994    1.302304
H      4.743194   -0.195891   -0.293738
H      1.612424    0.237552   -1.999486
H      2.952032    1.462131   -1.802371
H      3.311505   -0.258383   -2.100902
H     -2.753152   -1.825026    2.428917
H     -3.228306   -2.223055    0.746741
H     -3.046046    0.496238    2.149972
H     -4.180831   -0.083246    0.843191
H     -0.548833   -1.625949    1.815562
H     -0.966387   -2.253904    0.192811
H     -2.167676    1.613953    0.376887
H     -2.882148    2.305388   -1.584359
H     -4.238634   -1.206151   -2.676190
