29

C      2.818106   -1.373466    0.339258
C     -1.612492   -0.530435    1.539584
C     -2.173170   -1.080138   -0.768896
C      2.496834   -0.136995   -0.455718
C     -0.527613    2.203071   -0.307455
C     -1.626704    1.215239   -0.208207
C      0.122209   -0.612100   -0.164063
C      1.175983    0.421986    0.035077
C      0.773685    1.627303   -0.738917
C     -1.273120   -0.176468    0.092781
O      1.420181    2.117170   -1.638601
H      2.253760   -1.372178    1.300397
H      2.594026   -2.302787   -0.212053
H      3.899946   -1.363408    0.643732
H     -2.244283    0.266199    1.995081
H     -0.668077   -0.680139    2.125398
H     -2.173374   -1.471507    1.619394
H     -1.952052   -2.110050   -0.469704
H     -3.214968   -0.830576   -0.527938
H     -1.955233   -0.891750   -1.842263
H      3.278800    0.628648   -0.324383
H      2.372278   -0.402003   -1.539322
H     -0.785151    3.036066   -1.008395
H     -0.324356    2.704709    0.682932
H     -2.244149    1.308344   -1.151242
H     -2.331194    1.584479    0.595864
H      0.228593   -0.997353   -1.214440
H      0.386814   -1.484662    0.485578
H      1.284718    0.702801    1.116523
