51

C     -2.637221    0.761605    1.829574
C     -5.117243    1.498686   -0.340476
C      1.283479   -0.592393    1.298466
C     -1.328245   -0.146386   -1.982649
C      5.367309   -0.020211    1.189284
C      4.036627   -0.436777    1.105648
C     -0.058606   -0.571157    1.516503
C     -2.473816    0.738646   -1.455245
C     -4.361443   -1.919051    1.159998
C     -2.926263   -1.616709    1.434812
C      0.942421   -0.321811   -0.973595
C      5.321978    0.640631   -1.052901
C      1.865260   -0.462893    0.014900
C     -0.443506   -0.300002   -0.771081
C      6.007924    0.519240    0.118067
C      3.303326   -0.311206   -0.090414
C     -0.957639   -0.419559    0.482089
C      3.962104    0.209628   -1.131840
C     -3.167777   -0.124901   -0.456452
C     -5.167103   -0.770198    0.677130
C     -2.410223   -0.353210    0.824645
C      7.422457    1.036867    0.202363
F      8.225131    0.480272   -0.733363
F      7.379362    2.417901    0.060802
F      7.886085    0.782782    1.481093
N     -4.488805    0.252983   -0.076860
N      3.504634    0.301679   -2.434337
O     -6.396493   -0.702771    0.922785
O      3.841941    1.399166   -3.231269
O      2.931708   -0.614036   -3.037633
H     -2.304259    1.730871    1.456942
H     -3.725616    0.863206    2.038597
H     -2.184543    0.437956    2.792375
H     -5.760871    1.858714    0.491861
H     -5.786903    1.434829   -1.216527
H     -4.402766    2.353421   -0.521652
H      1.908181   -0.695353    2.151671
H     -1.791812   -1.126885   -2.181492
H     -0.805404    0.275218   -2.817616
H      5.883078   -0.155174    2.111623
H      3.604131   -0.884942    1.965032
H     -0.419050   -0.682986    2.529264
H     -1.955135    1.557277   -0.903822
H     -3.130849    1.060321   -2.253780
H     -4.831293   -2.269504    2.116712
H     -4.494155   -2.746580    0.442603
H     -2.332081   -2.464310    0.971092
H     -2.638857   -1.635935    2.514019
H      1.251251   -0.200619   -1.961557
H      5.819099    1.085743   -1.914483
H     -3.249511   -1.152084   -0.933437
