42

C      5.526395    1.314804    0.517516
C      0.848613   -2.932215   -0.701641
C      4.060058    1.649179    0.487117
C      3.247514    0.608495    1.260165
C      3.435735   -0.748846    0.655247
C      3.018916   -0.869052   -0.759321
C      1.595777   -0.581115   -1.063449
C     -4.648391    0.392412   -1.362637
C     -4.853894    0.953642    0.908876
C     -3.365689   -0.072878   -1.152280
C     -3.560147    0.489303    1.144508
C      0.623890   -1.486778   -0.340171
C     -5.424754    0.915185   -0.347718
C     -2.812957   -0.025423    0.112804
C     -6.785175    1.405043   -0.588036
C     -1.463674   -0.511923    0.347983
O     -7.505189    1.913707    0.466140
O     -7.231511    1.334664   -1.761535
O     -0.994725   -0.456939    1.490757
O     -0.666765   -1.039164   -0.649143
H      6.092256    2.211264    0.179739
H      5.798964    1.137809    1.594876
H      5.751578    0.442463   -0.112985
H      0.799269   -3.080980   -1.784411
H      1.859482   -3.213158   -0.368682
H      0.135345   -3.545308   -0.120420
H      3.672739    1.650585   -0.551060
H      3.874306    2.664254    0.885667
H      3.630601    0.650423    2.300100
H      2.217514    0.961589    1.271526
H      2.961472   -1.485078    1.337015
H      4.531853   -0.974776    0.702507
H      3.240908   -1.905838   -1.106528
H      3.649618   -0.207073   -1.385817
H      1.440570   -0.767828   -2.148561
H      1.283175    0.455485   -0.879270
H     -5.070851    0.347864   -2.368767
H     -5.429003    1.354906    1.727075
H     -2.743187   -0.486057   -1.937658
H     -3.136516    0.535004    2.158279
H      0.804787   -1.330637    0.739458
H     -8.408908    2.332987    0.256671
