49

C     -2.903871   -0.647550    1.601483
C     -3.799825    2.990602   -0.805967
C     -0.351271    0.869706    0.670251
C      6.652465    1.631125    0.798186
C     -0.127098   -2.977912   -1.089197
C     -1.359082   -2.441866   -0.806206
C      5.389114    1.134069    0.611294
C     -1.649713    1.590978    0.570464
C     -5.182788   -0.489157   -0.085686
C     -3.930424   -1.223340   -0.534802
C      0.896900   -1.026793   -0.232260
C      7.640132   -0.304431   -0.114611
C     -0.335020   -0.462675    0.063520
C      7.808994    0.964924    0.458432
C      1.046722   -2.269425   -0.803221
C     -1.450749   -1.209576   -0.241734
C      5.217489   -0.133477    0.039162
C      6.353879   -0.797958   -0.299178
C     -2.591689    0.885592   -0.357097
C     -5.083417    0.903011   -0.578622
C      3.901983   -1.793338   -0.675907
C     -2.759766   -0.543607    0.102949
Cl     9.413673    1.575558    0.686375
N      4.093101   -0.761400   -0.211721
N     -3.827915    1.561942   -0.575767
O     -6.112391    1.486253   -0.994362
S      2.627091   -2.983313   -1.178119
S      5.711075   -2.322543   -0.973681
H     -1.922618   -0.803028    2.108161
H     -3.408468    0.215798    2.052585
H     -3.517131   -1.549393    1.882579
H     -4.694052    3.361436   -1.323979
H     -2.919036    3.294613   -1.426264
H     -3.723289    3.562313    0.144834
H     -0.049757    0.800609    1.756083
H      0.487639    1.462538    0.202232
H      6.786041    2.628586    1.248461
H     -0.050846   -3.967853   -1.542717
H     -2.281469   -2.987274   -1.026436
H      4.561030    1.762662    0.923622
H     -1.455570    2.611412    0.131604
H     -2.077686    1.778621    1.568312
H     -6.099406   -0.989788   -0.440398
H     -5.253447   -0.433677    1.019983
H     -3.878329   -1.128297   -1.635532
H     -3.980732   -2.274533   -0.184759
H      1.802774   -0.462756   -0.003713
H      8.456014   -0.918118   -0.419770
H     -2.069260    0.830731   -1.357597
