52

C      5.811082   -2.363218   -0.434141
C      6.158131    2.581153   -0.057226
C     -2.969713    0.845261    1.439190
C     -5.231615   -2.125311   -0.317345
C      1.054414    1.431498   -0.612936
C     -1.193326   -1.709828    1.063428
C     -0.338306    1.527080   -0.598039
C     -2.552710   -1.932406    0.489251
C     -4.696920    1.677259   -0.562085
C     -3.208159    1.565947   -0.881302
C      5.863266    0.133575   -0.239815
C      3.766082   -0.926828   -0.255810
C      3.909550    1.452376   -0.073691
C      0.925682   -0.667765    0.446423
C      5.139400   -1.038513   -0.308611
C      5.297212    1.372115   -0.124461
C      1.700438    0.332748   -0.090638
C     -0.458031   -0.579744    0.464659
C      3.149501    0.300551   -0.139712
C     -1.102021    0.537301   -0.066734
C     -3.053393   -0.823275   -0.383459
C     -5.292655    0.333842   -0.430838
C     -2.586808    0.531706    0.006348
N     -4.507693   -0.848874   -0.378350
O     -6.545261    0.245335   -0.363751
H      6.052731   -2.723036    0.570237
H      5.054864   -3.062949   -0.888653
H      6.668548   -2.287181   -1.108282
H      6.464700    2.921132   -1.062512
H      5.628150    3.393230    0.465498
H      7.095304    2.382274    0.520826
H     -3.302769    1.921482    1.509838
H     -3.753792    0.160142    1.828583
H     -2.091446    0.737146    2.106919
H     -6.154155   -2.014679   -0.919638
H     -4.587979   -2.967635   -0.663894
H     -5.570273   -2.300759    0.732256
H      1.631947    2.235627   -1.042731
H     -1.295066   -1.520155    2.151379
H     -0.549192   -2.616886    0.984109
H     -0.838750    2.392922   -1.011028
H     -3.323277   -2.131808    1.277431
H     -2.513461   -2.854522   -0.128668
H     -4.891439    2.337608    0.305950
H     -5.131570    2.232369   -1.444122
H     -2.817211    2.594562   -0.709865
H     -3.118702    1.242131   -1.928050
H      6.944595    0.046503   -0.281292
H      3.164755   -1.835075   -0.307938
H      3.439997    2.427524    0.017772
H      1.443864   -1.541201    0.861314
H     -2.688517   -1.020749   -1.430743
