51

C     -2.652916    0.956150    1.532171
C     -5.406175   -0.809775   -0.269215
C      4.917376   -2.493089    1.237459
C      5.040866    1.585966   -1.554023
C      3.601556   -2.102617    1.148055
C      4.003096    0.886951   -0.934093
C      5.905277   -1.772023    0.622122
C      1.509926    0.740315    0.760808
C     -1.412255   -2.021983   -0.801696
C      0.176923    1.079045    0.645703
C     -2.774200   -1.639878   -0.259436
C     -3.574714    2.437432   -1.160958
C     -2.245867    2.102944   -0.572584
C      6.343359    1.150599   -1.429915
C      0.904894   -1.375647   -0.140235
C      1.884787   -0.519886    0.357223
C     -0.424177   -1.028268   -0.251187
C      3.252790   -0.963665    0.427858
C      4.250644   -0.242179   -0.190556
C     -0.789344    0.229113    0.152690
C      5.590663   -0.651271   -0.091417
C     -3.019559   -0.206830   -0.655761
C     -4.678001    1.570107   -0.711690
C     -2.176634    0.764015    0.101040
N      6.570847    0.050976   -0.705494
N     -4.391797    0.186259   -0.542885
O     -5.849424    1.995451   -0.473467
H     -2.180142    0.184252    2.168219
H     -3.762379    0.927428    1.598286
H     -2.357049    1.974021    1.861684
H     -6.335798   -0.332418    0.107215
H     -5.602526   -1.385440   -1.192141
H     -5.028737   -1.547379    0.496276
H      5.143652   -3.381547    1.805486
H      4.772753    2.448642   -2.110865
H      2.789405   -2.642596    1.618216
H      2.992877    1.229826   -1.050726
H      6.947990   -2.088624    0.698469
H      2.237282    1.456310    1.168919
H     -1.479803   -1.879904   -1.914781
H     -1.128410   -3.053351   -0.553721
H     -0.068471    2.095486    0.981215
H     -2.773137   -1.779774    0.835505
H     -3.555961   -2.259435   -0.727362
H     -3.531506    2.392947   -2.282403
H     -3.826285    3.510181   -0.935468
H     -1.893098    2.922519    0.119790
H     -1.470214    2.093208   -1.389510
H      7.122304    1.717930   -1.923958
H      1.169645   -2.387250   -0.470434
H     -2.740333   -0.123246   -1.733109
