22

C      2.961962    0.140390   -0.356682
C      0.974906   -0.425702    1.733385
C      1.571298    0.730648   -0.345113
C     -2.961784    0.475786   -0.303665
C     -1.646578   -0.266125   -0.349134
C      0.562672   -0.171315    0.301002
O     -3.912009   -0.292389   -0.977332
O     -0.653517    0.469427    0.318457
H      3.413610    0.076356    0.638408
H      2.991754   -0.840748   -0.872857
H      3.597183    0.873666   -0.935030
H      0.307949   -1.168526    2.228757
H      1.987845   -0.862433    1.755356
H      0.947605    0.529389    2.293621
H      1.283752    0.882597   -1.411882
H      1.600210    1.694784    0.170652
H     -2.884000    1.464944   -0.803247
H     -3.280671    0.554122    0.744522
H     -1.330055   -0.494712   -1.385122
H     -1.796559   -1.223578    0.178553
H      0.511808   -1.149197   -0.242429
H     -4.247383   -0.997386   -0.371953
