24

C      3.014199   -0.698007    0.404922
C     -3.331789    0.470601   -0.034954
C     -2.843141   -0.591313    0.697637
C     -2.506426    1.096589   -0.946483
C     -1.542487   -1.016431    0.514935
C     -1.201376    0.650068   -1.112143
C      0.688425   -0.932018   -0.527050
C      1.504978    1.270851    0.397911
C      1.579589   -0.220749    0.466449
C     -0.692724   -0.407090   -0.392243
Cl     2.236526    1.839771   -1.134133
H      3.641798    0.048415   -0.100978
H      3.444855   -0.877301    1.405593
H      3.050491   -1.652814   -0.151668
H     -4.360284    0.823022    0.095133
H     -3.493912   -1.078153    1.410309
H     -2.902757    1.928449   -1.514531
H     -1.181020   -1.858275    1.106866
H     -0.579435    1.139629   -1.818100
H      0.692923   -2.016131   -0.385055
H      1.006202   -0.674727   -1.573433
H      0.463368    1.594998    0.437200
H      2.090734    1.665820    1.253701
H      1.221263   -0.505204    1.500116
