49

C     -2.127478   -1.807557   -0.052375
C     -4.819216   -0.125692    1.793853
C      5.462124    2.152778   -0.438773
C      6.369124    1.185783   -0.027869
C      4.126461    1.835552   -0.462038
C      5.925693   -0.061692    0.346725
C      1.717934   -0.468716   -1.154589
C     -0.855788    1.441156    1.652649
C      0.327455   -0.658423   -1.188547
C     -2.147102    0.733097    1.850737
C     -3.872109   -0.787166   -1.838656
C     -2.524493   -0.114012   -1.791015
C      1.402724    0.965477    0.721318
C      2.233658    0.349185   -0.187472
C      0.001760    0.760130    0.667962
C      3.666278    0.561590   -0.080873
C     -0.519215   -0.049586   -0.285919
C      4.578769   -0.365546    0.318556
C     -2.797616    0.533729    0.509850
C     -4.696810   -0.516043   -0.634593
C     -1.950366   -0.319621   -0.405728
C      4.155003   -1.693697    0.761400
F      5.274464   -2.454610    1.146715
F      3.380689   -1.618356    1.926121
F      3.477688   -2.451660   -0.145123
N     -4.102130   -0.035450    0.553533
O     -5.932291   -0.729595   -0.715688
H     -3.073476   -2.009959    0.447988
H     -1.300115   -2.116377    0.650374
H     -1.948513   -2.413440   -0.968834
H     -5.770393   -0.690792    1.709188
H     -5.066854    0.929600    2.097911
H     -4.192994   -0.526912    2.631538
H      5.776918    3.138011   -0.737536
H      7.416533    1.445061   -0.013670
H      3.418038    2.598153   -0.785427
H      6.644081   -0.803937    0.664287
H      2.329663   -0.956112   -1.902840
H     -0.315119    1.612987    2.618641
H     -1.069962    2.459737    1.208504
H     -0.021683   -1.314484   -1.972563
H     -2.015957   -0.191099    2.423140
H     -2.816705    1.396209    2.445417
H     -3.700445   -1.887356   -1.866792
H     -4.445143   -0.524071   -2.751419
H     -1.899111   -0.533647   -2.585828
H     -2.621614    0.987204   -1.963846
H      1.794757    1.605873    1.479017
H     -2.877119    1.534297    0.028121
