49

C      2.269254   -0.829208    1.786946
C      4.856345    1.518006    0.666164
C     -5.643787   -0.673737   -1.808065
C     -6.468154   -0.053302   -0.898677
C     -4.284870   -0.743181   -1.615573
C     -5.892725    0.499889    0.217636
C     -1.682188   -1.420526    0.107206
C      0.795005    1.974054   -0.547686
C     -0.321815   -1.556179    0.290553
C      2.101155    1.827912    0.203652
C      3.890876   -1.843575   -0.875115
C      2.471825   -1.906328   -0.398717
C     -1.400805    0.835404   -0.475697
C     -2.255638   -0.224079   -0.279255
C     -0.021590    0.749976   -0.303467
C     -3.684246   -0.181154   -0.478784
C      0.519740   -0.455573    0.082515
C     -4.502438    0.431024    0.419424
C      2.705251    0.522131   -0.257476
C      4.710436   -0.853662   -0.108185
C      1.991269   -0.668271    0.299342
C     -4.017923    1.031131    1.659983
F     -3.135776    2.042024    1.390358
F     -3.357156    0.131988    2.474634
F     -5.033961    1.588473    2.431518
N      4.102791    0.413981    0.109318
O      5.864083   -1.116409    0.320907
H      1.396792   -1.254867    2.327951
H      3.091092   -1.577280    1.916634
H      2.540611    0.114138    2.276190
H      5.250312    2.209678   -0.080167
H      4.181436    2.105255    1.353343
H      5.734599    1.131525    1.239964
H     -6.092443   -1.109011   -2.684660
H     -7.558998   -0.003288   -1.064174
H     -3.603005   -1.226616   -2.314956
H     -6.543758    0.984952    0.927113
H     -2.337057   -2.277777    0.269333
H      0.275615    2.888660   -0.208270
H      0.982601    2.042302   -1.635697
H      0.111975   -2.516349    0.597864
H      1.901038    1.776957    1.284089
H      2.820702    2.626309   -0.074010
H      3.900318   -1.521447   -1.950319
H      4.418929   -2.827092   -0.822536
H      2.299412   -2.823955    0.236089
H      1.813547   -2.061168   -1.287837
H     -1.789356    1.811585   -0.806578
H      2.630680    0.466680   -1.373557
