24

C     -1.487755    1.100476    1.088825
C      3.389990    0.329506   -0.223179
C      2.725457    0.204706   -1.419378
C      2.721474    0.060568    0.944705
C      1.396229   -0.186355   -1.473139
C      1.402035   -0.326723    0.876587
C     -0.683761   -0.876871   -0.233189
C     -3.053239   -0.384761   -0.046389
C     -1.670693    0.244348   -0.116354
C      0.709976   -0.460355   -0.308532
Cl    -3.272439   -1.406780   -1.484495
H     -1.201509    0.578785    2.001655
H     -2.487585    1.580552    1.306523
H     -0.820660    1.979637    0.854399
H      4.425116    0.631282   -0.135665
H      3.260677    0.417824   -2.318098
H      3.224561    0.151946    1.901503
H      0.867085   -0.285516   -2.429361
H      0.922620   -0.527628    1.847183
H     -0.998517   -1.480155   -1.131061
H     -0.809097   -1.537185    0.647818
H     -3.848805    0.361810    0.031231
H     -3.030374   -1.070710    0.830885
H     -1.680786    0.901600   -1.012473
