36

C     -4.660850   -0.107728    1.723028
C      5.546852   -0.037933    1.175488
C     -3.828009    0.457928    0.564970
C     -2.983800   -0.689231    0.065365
C     -2.093285   -0.296381   -1.091205
C     -1.134221    0.805157   -0.738056
C     -0.254583    0.367736    0.397339
C      0.570803   -0.859243    0.082847
C      1.461030   -0.627209   -1.084217
C      2.420215    0.498995   -0.915364
C      3.328514    0.283928    0.225805
O      3.177836    0.665284   -2.096945
O      2.921981    0.193772    1.399112
O      4.715774    0.167096    0.056823
H     -5.499961    0.560043    1.957654
H     -3.956508   -0.188685    2.591999
H     -4.950981   -1.121894    1.427026
H      5.427128   -1.058568    1.596050
H      6.605907    0.059854    0.817170
H      5.348661    0.682801    1.986556
H     -4.501509    0.857120   -0.220268
H     -3.180014    1.264067    0.963589
H     -2.400405   -1.075658    0.909601
H     -3.646586   -1.525962   -0.281907
H     -1.533329   -1.198570   -1.400910
H     -2.709412   -0.027273   -1.983972
H     -0.542651    1.034718   -1.651983
H     -1.743704    1.683830   -0.418873
H     -0.824162    0.136935    1.315134
H      0.434910    1.207298    0.674683
H     -0.113503   -1.727949   -0.098528
H      1.153008   -1.126251    0.981151
H      0.827222   -0.437961   -1.984287
H      2.055380   -1.567301   -1.275093
H      1.829068    1.443475   -0.804580
H      2.733186    1.303759   -2.693312
