58

C     -7.106325    2.008041    0.596300
C     -6.695998    1.624656   -0.659655
C     -6.409706    1.527923    1.698073
C      2.085570   -2.188686   -3.223334
C      1.320369   -3.225227   -2.472134
C     -5.604422    0.772152   -0.830662
C     -5.342422    0.695710    1.555671
C      2.036016   -0.833300   -2.539454
C      4.035630    2.926559    2.579929
C      5.241628    2.089893    2.303168
C     -0.991881    1.688219   -0.184200
C     -2.277650    1.273208   -0.028542
C      0.275190   -2.670080   -1.551237
C      1.036429   -2.248747    0.758372
C      1.663625   -1.302625    1.704492
C      1.375533    1.249018   -0.538164
C     -1.552899   -1.016481   -0.251683
C      3.959817    1.781172    1.603734
C      0.007009    0.741543   -0.373247
C     -4.931629    0.311314    0.287251
C     -2.559761   -0.093283   -0.062840
C      2.112201   -1.082892   -1.060035
C     -0.244784   -0.595170   -0.410053
C      2.365516    0.175094   -0.268770
C      3.166766    0.603424    2.015867
C      0.791499   -1.629717   -0.606449
N      2.380757   -0.196196    1.142021
O      3.179696    0.267327    3.249923
O     -3.851921   -0.533293    0.092281
H     -7.955581    2.668503    0.676169
H     -7.194185    1.962617   -1.548111
H     -6.764097    1.852464    2.658415
H      1.776669   -2.110823   -4.295173
H      3.159257   -2.493813   -3.222592
H      1.982408   -3.967656   -1.951683
H      0.769358   -3.844035   -3.238936
H     -5.270342    0.462693   -1.801096
H     -4.794642    0.317443    2.407716
H      1.037011   -0.397577   -2.799140
H      2.829403   -0.168463   -2.905408
H      3.979434    3.949113    2.161745
H      3.531058    2.823732    3.569124
H      5.603453    1.471585    3.138790
H      6.091293    2.518110    1.697372
H     -0.762265    2.727915   -0.160160
H     -3.087673    1.981496    0.121543
H     -0.585167   -2.289891   -2.147841
H     -0.137609   -3.538641   -0.972998
H      0.013967   -2.510242    1.158233
H      1.611501   -3.182542    0.670555
H      0.929288   -0.862640    2.441312
H      2.368694   -1.892219    2.361146
H      1.475885    1.582217   -1.594556
H      1.572251    2.088499    0.173707
H     -1.833996   -2.059159   -0.268743
H      3.932980    2.062069    0.541389
H      2.895629   -1.810276   -0.796112
H      3.362165    0.539965   -0.601292
