58

C      7.217793    1.429810    1.521408
C      6.893868    1.237433    0.204294
C      6.470795    0.842147    2.519014
C     -1.262970   -1.761286   -3.514750
C     -1.225058   -2.953216   -2.581037
C      5.808400    0.447252   -0.132284
C      5.396094    0.060524    2.165651
C     -1.280535   -0.453713   -2.715008
C     -4.377473    3.052294    2.017902
C     -5.452597    2.737023    1.058349
C      1.178410    1.467571    0.382792
C      2.461645    0.931003    0.535492
C     -0.277882   -2.681056   -1.405609
C     -1.454836   -2.025711    0.709132
C     -2.807488   -1.475452    0.997541
C     -1.206961    1.314631   -0.107025
C      1.616133   -1.207891   -0.011544
C     -4.106807    2.104256    0.865244
C      0.104845    0.674406    0.032574
C      5.041328   -0.154384    0.841200
C      2.676868   -0.399903    0.338841
C     -1.793264   -0.784840   -1.357691
C      0.338561   -0.670555   -0.163011
C     -2.287739    0.405956   -0.579004
C     -3.886439    0.712657    1.273811
C     -0.807086   -1.556961   -0.543989
N     -2.996819   -0.114886    0.566071
O     -4.505044    0.265248    2.269217
O      3.962649   -0.939083    0.491568
H      8.060126    2.043973    1.755350
H      7.468485    1.690595   -0.594300
H      6.743063    1.006001    3.565613
H     -2.240031   -1.823125   -4.059469
H     -0.477214   -1.765048   -4.268198
H     -0.756884   -3.828250   -3.117763
H     -2.207692   -3.288468   -2.252150
H      5.574824    0.311895   -1.176504
H      4.790194   -0.413699    2.906846
H     -0.219213   -0.092307   -2.684423
H     -1.934845    0.256043   -3.239795
H     -3.863618    4.021251    1.950855
H     -4.425333    2.639656    3.047361
H     -6.285653    2.044106    1.349287
H     -5.799595    3.495955    0.325572
H      1.105578    2.533651    0.559618
H      3.301357    1.556193    0.810286
H     -0.081358   -3.603619   -0.863390
H      0.667930   -2.333852   -1.870203
H     -0.790836   -1.905438    1.614689
H     -1.571201   -3.146167    0.619128
H     -2.942722   -1.479486    2.119147
H     -3.623158   -2.140540    0.625131
H     -1.079140    2.215794   -0.766287
H     -1.459087    1.753379    0.902657
H      1.805823   -2.260376   -0.163274
H     -3.554370    2.480544   -0.012838
H     -2.691558   -1.455368   -1.498755
H     -2.952265    0.983429   -1.263343
