48

C      2.833643   -1.343812    0.945607
C      5.475142    0.491848   -0.900788
C     -7.587396   -0.392839   -2.053928
C     -8.158991   -0.861444   -0.891215
C     -6.271034   -0.136185   -2.247877
C     -7.289244   -1.086450    0.172160
C     -1.350513   -0.582396    1.270824
C      1.232830    0.799311   -1.796655
C      0.003833   -0.476246    1.547336
C      2.688549    0.604873   -1.547743
C      3.989199    0.574949    2.599935
C      2.540345    0.770429    2.205575
C     -1.015570    0.187561   -0.907290
C      0.367436    0.312627   -0.675277
C     -1.852787   -0.248970    0.042419
C      0.883939   -0.014964    0.543257
C     -5.358956   -0.348749   -1.203463
C     -5.910550   -0.812838   -0.045511
C      3.076134    0.899605   -0.133689
C      4.917925    0.763120    1.470617
C     -3.306369   -0.347463   -0.301274
C      2.331789    0.085563    0.872776
N     -4.064232   -0.166674   -1.181762
N      4.473358    0.716517    0.095105
O      6.131612    0.969393    1.740978
S     -4.456565   -0.955449    1.026996
H      2.343099   -1.821709    1.808591
H      3.917225   -1.432747    0.978635
H      2.419062   -1.851836    0.028566
H      5.095868    0.151705   -1.867028
H      6.023725    1.451573   -1.084756
H      6.265216   -0.227543   -0.554541
H     -8.295620   -0.222320   -2.881443
H     -9.186330   -1.061558   -0.740461
H     -5.963981    0.230764   -3.220422
H     -7.600597   -1.452581    1.140315
H     -2.030256   -0.934785    2.035396
H      0.952550    1.852062   -2.010021
H      0.928023    0.204545   -2.693996
H      0.400537   -0.745435    2.514404
H      3.243492    1.327818   -2.202341
H      3.003354   -0.427392   -1.791775
H      4.122365   -0.452153    3.042595
H      4.288515    1.275231    3.409617
H      1.903765    0.441519    3.013943
H      2.423585    1.867515    2.006910
H     -1.396203    0.455054   -1.883222
H      2.819078    1.970960    0.061422
