47

C     -2.104906    1.196701    1.427433
C     -4.769243   -1.048377    1.186165
C      1.734498    1.294987   -0.724251
C      4.452672    0.536360   -1.555082
C     -0.798358   -1.871965    0.636542
C      0.362888    1.486767   -0.574147
C      5.817717    0.337128   -1.682898
C     -2.176949   -1.843590    0.048522
C     -3.784997    1.787400   -1.141623
C     -2.285582    1.780491   -0.924151
C      1.444075   -0.954954    0.011810
C      4.401886   -0.988185    0.235102
C      2.274630    0.060829   -0.427169
C      3.714452   -0.123643   -0.591077
C      0.085003   -0.782000    0.165820
C     -0.434139    0.451877   -0.134425
C      5.764172   -1.190929    0.111964
C      6.492009   -0.528234   -0.852190
C     -2.725108   -0.522347   -0.283669
C     -4.530479    1.082515   -0.080966
C     -1.866054    0.670456    0.019855
F      6.440256   -2.043547    0.926580
N     -4.026334   -0.214564    0.310939
O      7.878537   -0.732470   -0.979843
O     -5.552068    1.579907    0.457571
H     -2.565399    2.201955    1.436020
H     -1.154568    1.292806    2.000489
H     -2.768640    0.536783    2.010019
H     -5.441711   -1.771606    0.644253
H     -4.194292   -1.560060    1.973600
H     -5.496377   -0.390148    1.750583
H      2.389589    2.081605   -1.065750
H      3.912070    1.208475   -2.196069
H     -0.268976   -2.830781    0.376352
H     -0.823129   -1.879155    1.762901
H      0.007776    2.476811   -0.824292
H      6.379448    0.860075   -2.441187
H     -2.129107   -2.523275   -0.857481
H     -2.823533   -2.441777    0.759373
H     -4.109757    2.846336   -1.234612
H     -4.049388    1.298356   -2.112661
H     -1.980449    2.778542   -0.506191
H     -1.817064    1.699756   -1.916391
H      1.871978   -1.917827    0.242329
H      3.850266   -1.514772    0.994474
H     -2.924451   -0.493919   -1.397293
H      8.327137   -1.378794   -0.343721
