48

C     -2.499021   -0.845443    1.621623
C     -5.230603   -0.688967   -1.002653
C      4.170619   -0.053908   -1.264779
C      4.358835   -0.345532    1.053781
C      1.537277    0.458646    1.236683
C     -0.970331   -0.915359   -1.889272
C      5.563879   -0.140395   -1.378187
C      5.728005   -0.432201    0.956266
C      0.172962    0.554301    1.397474
C     -2.388327   -1.159050   -1.370029
C     -3.546038    2.338648    0.568277
C     -2.453812    1.577001    1.286936
C      1.233936   -0.499600   -0.891209
C      3.549614   -0.155858   -0.042649
C      2.111331   -0.070306    0.089637
C     -0.136940   -0.417446   -0.760547
C      6.347722   -0.330478   -0.262920
C     -0.664382    0.111818    0.388981
C     -2.813269    0.087086   -0.681068
C     -4.649855    1.357482    0.262672
C     -2.130220    0.254692    0.650083
N     -4.228687    0.217858   -0.495678
N      7.772950   -0.415913   -0.404071
O     -5.821055    1.518579    0.632803
O      8.584537   -0.604946    0.683788
O      8.271589   -0.317364   -1.520997
H     -2.663613   -0.422185    2.643982
H     -1.700163   -1.603042    1.730468
H     -3.428536   -1.360814    1.336905
H     -5.649152   -0.230857   -1.946279
H     -4.852023   -1.682979   -1.255543
H     -6.125593   -0.737517   -0.316611
H      3.587154    0.092972   -2.140499
H      3.843331   -0.426030    2.023809
H      2.227275    0.803257    2.020879
H     -0.540973   -1.836867   -2.336256
H     -1.049120   -0.134515   -2.675642
H      6.060454   -0.061543   -2.333300
H      6.319446   -0.580232    1.835104
H     -0.219443    0.981348    2.326671
H     -3.081028   -1.364160   -2.217517
H     -2.346340   -2.054564   -0.745857
H     -3.962745    3.106317    1.221957
H     -3.138435    2.753189   -0.398714
H     -2.805457    1.444594    2.339158
H     -1.534851    2.199010    1.358156
H      1.672568   -0.921598   -1.807471
H     -2.483473    0.952872   -1.312171
