41

C      4.327433    2.517881    0.393211
C     -3.609256   -3.079067    0.680591
C     -1.485509    3.511829   -0.682923
C     -2.808651   -3.398785   -0.384127
C     -3.325541   -1.926762    1.394729
C     -1.769029    2.639964   -1.713633
C     -0.818177    3.053855    0.424923
C     -1.749270   -2.588737   -0.730312
C     -2.244527   -1.116356    1.027996
C     -1.369972    1.306421   -1.607641
C     -0.438226    1.735548    0.500235
C      2.033936    0.020196   -0.111977
C      3.237938   -0.208053    0.799543
C     -1.442360   -1.440027   -0.041964
C     -0.701984    0.835739   -0.505404
C      0.901066   -0.803477    0.451653
C     -0.305546   -0.589393   -0.436855
N      1.297469   -2.166007    0.415674
O      0.131788   -0.962684   -1.732865
S      4.671981    0.734130    0.223663
H      5.267205    3.078055    0.385296
H      3.748427    2.670380    1.341504
H      3.696225    2.791333   -0.462756
H     -4.458503   -3.715446    0.967336
H     -1.796295    4.567773   -0.756271
H     -3.017373   -4.289408   -0.946121
H     -3.943401   -1.672614    2.225504
H     -2.294419    3.034414   -2.570596
H     -0.607299    3.763402    1.222682
H     -1.158740   -2.887848   -1.564133
H     -2.015541   -0.213819    1.578891
H     -1.631434    0.694299   -2.453766
H      0.091802    1.418470    1.412254
H      1.843336    1.093858   -0.165133
H      2.352074   -0.368215   -1.122448
H      2.949366    0.067651    1.840296
H      3.532102   -1.272627    0.829928
H      0.696901   -0.507191    1.482499
H      1.650924   -2.547038   -0.441358
H      1.244320   -2.712942    1.254864
H     -0.683239   -1.068700   -2.277195
