87

C     -4.645288   -6.015418   -3.734863
C      7.095218   -3.864729   -4.476555
C      1.793528    6.235513   -3.383732
C      0.392007    1.445900    8.002194
C     -5.105956    3.045622    0.127387
C     -4.192350   -0.855617    4.301069
C     -1.565085   -1.671287   -1.176847
C     -3.755128   -0.917132   -0.780555
C      4.448679    0.648175   -1.618373
C      4.062056   -1.185784   -0.211867
C     -2.074558   -2.655999   -2.030761
C     -4.258794   -1.895786   -1.629179
C      5.348501   -0.130368   -2.370948
C      4.939588   -1.967905   -0.934176
C      1.013975    2.121895   -1.327025
C     -0.191716   -0.010214    3.603352
C     -1.110191    2.967946   -1.943890
C      2.075155    0.517356    3.813358
C     -4.184350   -5.040364   -2.725196
C      6.069195   -3.039610   -3.792975
C      1.179237    5.225035   -2.480022
C      0.501464    1.377022    6.521923
C     -3.657961    2.977094   -0.134526
C     -3.166000   -1.131793    3.261186
C     -2.410320   -0.790449   -0.543325
C      3.801844    0.127847   -0.538256
C     -3.427846   -2.772967   -2.261592
C      5.579777   -1.434324   -2.012780
C      0.249069    3.012581   -2.063492
C      0.884930    0.242553    4.441032
C      0.428383    1.202475   -0.484884
C     -0.127636    0.000963    2.230012
C     -1.703412    2.062223   -1.115200
C      2.188869    0.540137    2.406784
C     -1.832025    0.260542    0.388699
C     -0.961959    1.141797   -0.353134
C      1.087249    0.283315    1.653001
C      1.455362    0.389568    0.200425
C      2.833910    0.964737    0.261793
C     -1.437190   -0.336972    1.665999
O     -4.083448   -5.369564   -1.534113
O      4.866787   -3.040566   -4.152783
O      0.950155    5.475910   -1.264437
O      0.311339    2.427955    5.862283
O     -2.929637    3.847142    0.423287
O     -2.927328   -2.305141    2.881756
O     -3.868845   -3.767754   -3.117727
O      6.467060   -2.251979   -2.729312
O      0.824692    3.952245   -2.922234
O      0.799787    0.226921    5.827835
O     -3.088217    1.990481   -0.969183
O     -2.430706   -0.115062    2.667161
O      3.300058    0.792249    1.624253
H     -5.482315   -5.594433   -4.346529
H     -3.812349   -6.189183   -4.460716
H     -5.020128   -6.950480   -3.279599
H      7.938361   -4.118072   -3.789144
H      6.653902   -4.823699   -4.816938
H      7.471871   -3.344129   -5.365187
H      1.314936    7.217405   -3.163923
H      1.507373    5.961628   -4.416994
H      2.894754    6.266894   -3.288815
H      0.857379    0.564320    8.493654
H     -0.689352    1.407431    8.250310
H      0.773651    2.402591    8.408710
H     -5.267637    3.088057    1.238639
H     -5.650418    2.165149   -0.280569
H     -5.555449    3.989588   -0.262203
H     -5.005994   -1.623322    4.257384
H     -4.588932    0.173009    4.242508
H     -3.713861   -0.991847    5.295131
H     -0.506134   -1.585947   -1.001310
H     -4.449413   -0.228112   -0.276112
H      4.295659    1.664964   -1.920393
H      3.555884   -1.618547    0.646099
H     -1.375619   -3.326991   -2.507805
H     -5.324961   -1.929210   -1.762841
H      5.845149    0.306748   -3.220684
H      5.113377   -2.986820   -0.645208
H      2.063305    2.204348   -1.488191
H     -1.120753   -0.222847    4.147339
H     -1.756417    3.656158   -2.509178
H      2.963383    0.725504    4.419289
H     -2.775652    0.873195    0.627817
H      1.521702   -0.632325   -0.233424
H      2.943303    2.030854    0.097776
H     -1.430533   -1.468290    1.560260
