52

C     -4.439993   -2.484080    0.600372
C     -3.332937   -1.326637    2.424179
C     -4.638938    0.110282   -0.756619
C     -4.210495    1.010249    1.381239
C     -5.222170    1.289724   -1.142874
C     -4.796251    2.218461    1.017731
C      5.929239    0.892223    1.099966
C     -0.149835    1.289943    1.304076
C      1.539289   -1.535314   -1.695294
C     -4.123342   -0.043220    0.519907
C     -5.308163    2.355928   -0.262255
C      5.182680    0.690580   -0.198346
C     -0.058188   -0.805463   -0.359643
C      5.473996   -0.670197   -0.809970
C      4.338830   -0.781278   -1.806280
C     -1.220426   -0.563905    0.387792
C      1.051211    0.002175   -0.269095
C      3.319357    0.168203   -1.220252
C     -3.511241   -1.308788    0.935897
N     -1.210032    0.482104    1.190651
N      0.960354    1.043533    0.579675
N      0.291818   -1.763275   -1.269476
N     -2.278237   -1.484310    0.205287
N      2.020552   -0.450011   -1.086604
O      5.470224    2.085160    1.662642
O     -5.905221    3.532993   -0.690844
O      6.721098   -0.745416   -1.407565
O      4.803645   -0.359195   -3.042361
O      3.810631    0.612771    0.005582
H     -5.407264   -2.315388    1.088933
H     -3.957319   -3.365926    1.077941
H     -4.508561   -2.676345   -0.471373
H     -2.484658   -0.690522    2.725620
H     -3.099324   -2.349387    2.788455
H     -4.295724   -1.003861    2.882135
H     -4.573435   -0.721716   -1.439811
H     -3.824501    0.939337    2.386252
H     -5.631078    1.413965   -2.141890
H     -4.879279    3.071373    1.669118
H      7.019766    1.017192    0.919909
H      5.744175    0.064041    1.819688
H     -0.183256    2.152922    1.989883
H      2.052464   -2.163261   -2.430060
H      5.425358    1.499981   -0.902772
H      5.348573   -1.432933    0.003853
H      4.011699   -1.828831   -1.795025
H      3.259530    1.052234   -1.892585
H     -2.172113   -2.302446   -0.464859
H      6.001375    2.818112    1.244331
H     -5.984745    4.325108   -0.081824
H      6.750514   -1.612414   -1.895554
H      4.880348    0.645527   -2.979721
