51

C     -2.751542    1.929903    0.178069
C     -4.771941   -1.897394   -0.987225
C      1.377548    0.449413    1.387396
C     -1.177300    0.322004   -1.974161
C      5.342046    1.337536   -0.865761
C      3.999679    1.367107   -0.647932
C     -0.008760    0.516418    1.577330
C     -2.614868    0.031411   -1.730038
C     -4.340165    0.510694    2.008595
C     -2.826245    0.281245    2.005893
C      1.036450    0.305518   -0.931567
C      5.445285   -0.868524   -0.036139
C      1.928228    0.342272    0.135832
C     -0.330930    0.371003   -0.760802
C      6.101494    0.216535   -0.564586
C      3.364167    0.239919   -0.106213
C     -0.859682    0.477181    0.504360
C      4.068590   -0.882569    0.203704
C     -2.847747   -0.494084   -0.356673
C     -4.923178   -0.382779    1.000420
C     -2.334267    0.541795    0.624157
C      3.403532   -2.085137    0.744460
F      4.383697   -3.081629    0.930504
F      2.818546   -1.927059    1.967004
F      2.432826   -2.547502   -0.137971
N     -4.183604   -0.913861   -0.099273
N      7.489957    0.211123   -0.798930
O     -6.151290   -0.701345    1.111041
O      8.235995   -0.908520   -0.495908
O      8.015655    1.233145   -1.281013
H     -2.643894    2.594244    1.072401
H     -2.069253    2.341934   -0.585712
H     -3.813504    1.979102   -0.122211
H     -4.031697   -2.712637   -1.231174
H     -5.632111   -2.421995   -0.523514
H     -5.110797   -1.462514   -1.946768
H      2.020231    0.507758    2.272419
H     -1.046685    1.312720   -2.497664
H     -0.703245   -0.417024   -2.672171
H      5.844738    2.220015   -1.290760
H      3.419737    2.225472   -0.878806
H     -0.361498    0.598920    2.605781
H     -2.927135   -0.765509   -2.453181
H     -3.250221    0.923444   -1.944999
H     -4.559609    1.584084    1.789118
H     -4.731397    0.293934    3.039037
H     -2.336696    0.938478    2.754864
H     -2.660454   -0.776709    2.258577
H      1.479699    0.220956   -1.926452
H      5.977460   -1.782215    0.224112
H     -2.185847   -1.396279   -0.229815
