47

C     -2.382272   -0.941307    1.477158
C     -4.967126   -0.851550   -1.048352
C      5.723901   -1.217600   -0.445649
C      5.850175    0.917680    0.708177
C      4.348926   -1.186982   -0.386634
C      4.468436    0.925357    0.754995
C      1.695477    0.612209    1.371634
C     -0.666629   -1.156661   -1.723103
C      0.298769    0.684869    1.443768
C     -2.155303   -1.079091   -1.572391
C     -3.452085    2.259781    0.493834
C     -2.341235    1.533730    1.219483
C      1.458366   -0.584223   -0.673314
C      7.896868   -0.190075    0.044556
C      6.453687   -0.164270    0.102933
C      3.733863   -0.109145    0.216800
C      2.261463   -0.025532    0.307039
C      0.065530   -0.520585   -0.616358
C     -0.481135    0.122181    0.457235
C     -2.598881    0.095616   -0.748729
C     -4.506553    1.216581    0.218977
C     -1.947946    0.226131    0.580350
N      9.063709   -0.195393   -0.012527
N     -4.033922    0.113675   -0.550326
O     -5.684067    1.320933    0.633419
H     -1.563650   -1.285491    2.123172
H     -3.202370   -0.610218    2.138238
H     -2.678492   -1.792608    0.831007
H     -5.904702   -0.297635   -1.326306
H     -4.640101   -1.382318   -1.950359
H     -5.303561   -1.570423   -0.250326
H      6.231595   -2.038223   -0.906283
H      6.446785    1.734132    1.132364
H      3.749543   -1.991895   -0.804622
H      3.983536    1.771389    1.227899
H      2.310009    1.043103    2.128660
H     -0.372009   -0.594017   -2.658272
H     -0.334736   -2.204958   -1.914248
H     -0.093735    1.200500    2.308726
H     -2.635216   -0.964538   -2.575418
H     -2.509730   -2.054203   -1.184630
H     -3.106535    2.719814   -0.452285
H     -3.881934    2.989988    1.188769
H     -2.701051    1.328525    2.248611
H     -1.495936    2.249272    1.275648
H      1.961305   -1.072009   -1.484760
H     -2.361030    1.015483   -1.342867
