51

C     -2.472651   -1.486362    1.025072
C     -5.169637    1.466487    0.803846
C      4.985274    2.429016   -0.042468
C      5.950283    1.435927    0.004233
C      3.671374    2.011540   -0.097804
C      1.398760   -0.507608   -1.168570
C     -1.209524    1.085902    1.756969
C      0.044366   -0.836670   -1.207320
C     -2.392716    1.656067    1.015393
C     -4.172510   -1.645177   -1.226168
C      4.016753   -1.628902   -0.053727
C     -2.738846   -1.274198   -1.392242
C      4.999860   -2.599950    0.002746
C      1.061566    0.853920    0.775380
C      6.561246   -0.865641    0.051047
C      1.917692    0.321974   -0.200821
C     -0.257836    0.534237    0.738266
C      5.606701    0.114634   -0.004005
C      3.313513    0.681294   -0.107341
C      4.272199   -0.275552   -0.060080
C     -0.771828   -0.301243   -0.237601
C     -2.948144    0.733813   -0.030893
C     -4.928448   -0.680251   -0.388195
C     -2.234788   -0.577112   -0.163729
N      6.281377   -2.179376    0.054808
N     -4.358726    0.500231    0.126817
O     -6.127858   -0.953752   -0.143152
H     -2.924860   -2.449656    0.710150
H     -1.512416   -1.763677    1.511518
H     -3.201001   -1.037030    1.739668
H     -6.234028    1.443581    0.489696
H     -4.816251    2.503852    0.572426
H     -5.171483    1.358906    1.908130
H      5.229715    3.485862   -0.036734
H      6.993681    1.761243    0.047726
H      2.917323    2.812202   -0.134295
H      2.048300   -0.908105   -1.924868
H     -0.701011    1.965682    2.249660
H     -1.455359    0.390905    2.556223
H     -0.347982   -1.489477   -1.975619
H     -2.072454    2.624246    0.577967
H     -3.189782    1.891219    1.748996
H     -4.705233   -1.699152   -2.218984
H     -4.297940   -2.648620   -0.775528
H      3.009692   -1.981497   -0.082302
H     -2.663879   -0.597112   -2.282910
H     -2.171045   -2.231463   -1.579462
H      4.780152   -3.657748    0.006413
H      1.430989    1.511620    1.554482
H      7.593222   -0.547230    0.093429
H     -2.835799    1.248200   -1.031675
