51

C     -2.949550   -1.579965    0.752087
C     -5.541044   -0.272590   -1.301166
C      7.469774   -1.608166    0.200824
C      7.969296   -0.485094   -0.390641
C      6.119989   -1.745960    0.428057
C      7.089172    0.520748   -0.760907
C      1.087702   -0.597290    1.203010
C     -1.483190    1.365661   -1.665881
C     -0.280118   -0.619833    1.341516
C     -2.769929    0.546190   -1.722449
C     -4.373883    1.110219    2.038419
C     -3.000146    0.476413    2.040678
C      0.746354    0.694133   -0.784119
C      3.887823   -0.875028    0.284114
C      3.565429    1.254185   -0.684741
C      1.596755    0.079329    0.109819
C     -0.626486    0.668562   -0.641105
C      5.242352   -0.752881    0.063482
C      3.033756    0.133556   -0.090506
C     -1.153637    0.001438    0.438715
C      5.720405    0.382808   -0.531294
C     -3.347585    0.636320   -0.351635
C     -5.298337    0.468276    1.039371
C     -2.600921   -0.101441    0.705222
N      4.897807    1.370958   -0.900094
N     -4.724580    0.265971   -0.251167
O     -6.472102    0.138963    1.314407
H     -2.660905   -1.921212    1.784389
H     -4.058236   -1.736059    0.705700
H     -2.392299   -2.183368    0.038395
H     -6.478203   -0.737468   -0.911825
H     -5.847357    0.489609   -2.039185
H     -5.033169   -1.075284   -1.877288
H      8.178431   -2.387378    0.484448
H      9.031506   -0.355050   -0.579721
H      5.718396   -2.633188    0.896488
H      7.498794    1.404705   -1.228812
H      1.781407   -1.065408    1.880816
H     -0.980728    1.437383   -2.629557
H     -1.682575    2.365052   -1.270270
H     -0.668508   -1.159463    2.211885
H     -3.442119    1.105009   -2.408789
H     -2.569086   -0.461282   -2.089494
H     -4.307771    2.206374    1.807840
H     -4.879694    1.026916    3.013118
H     -2.238600    1.225040    2.349279
H     -3.016731   -0.308388    2.830985
H      1.133190    1.237326   -1.659832
H      3.472267   -1.758033    0.752139
H      2.941222    2.078515   -1.000136
H     -3.304337    1.730171   -0.065566
