46

C     -2.084733   -0.074458    2.002591
C     -4.775710    1.171342   -0.420923
C      5.905234    1.561771    0.023812
C      6.693596    0.446743   -0.117952
C      4.533180    1.464534    0.117549
C      6.077900   -0.777003   -0.164481
C      2.017428   -0.907673    1.004065
C     -0.656530    1.642287   -1.217375
C      0.657910   -1.066525    1.115934
C     -2.027708    1.664859   -0.577794
C     -3.387524   -2.363699    0.210138
C     -1.983748   -1.990249    0.509693
C      1.609308    0.891537   -0.537868
C      2.469109    0.084039    0.165924
C      0.222776    0.723462   -0.418603
C      3.928403    0.227128    0.069188
C     -0.244746   -0.260999    0.413054
C      4.714228   -0.896456   -0.073029
C     -2.444168    0.218529   -0.458947
C     -4.314381   -1.238651    0.081701
C     -1.710500   -0.514778    0.604181
F      4.155937   -2.152109   -0.126178
N     -3.858810    0.061234   -0.266994
O     -5.559824   -1.404981    0.282095
H     -3.157114   -0.162011    2.179339
H     -1.566376   -0.758807    2.705776
H     -1.792736    0.991952    2.185121
H     -5.723522    0.995565    0.149658
H     -4.957363    1.320455   -1.498957
H     -4.352699    2.116666    0.008768
H      6.425612    2.517664    0.057249
H      7.774407    0.470129   -0.195793
H      3.952344    2.371378    0.228408
H      6.664651   -1.697004   -0.276762
H      2.708008   -1.539478    1.555064
H     -0.213321    2.663513   -1.268889
H     -0.797610    1.207242   -2.242459
H      0.256652   -1.847417    1.775426
H     -2.741707    2.178678   -1.250503
H     -2.032506    2.199811    0.387431
H     -3.794299   -3.029312    1.027020
H     -3.444975   -3.011182   -0.711943
H     -1.641093   -2.510737    1.451209
H     -1.306745   -2.386783   -0.300151
H      1.998307    1.660690   -1.187238
H     -2.194543   -0.260901   -1.434559
