29

C      4.176134    0.571174   -0.482075
C     -3.517350    0.152664   -0.566607
C     -0.612201   -1.692222    0.127130
C      2.959383    0.852138    0.348815
C     -3.125774   -0.389266    0.777230
C      1.754533    0.135960   -0.245302
C     -1.781746    0.177875    1.158092
C      0.575914    0.461780    0.636014
C     -0.702691   -0.187634    0.163143
H      4.277591    1.342845   -1.270810
H      5.069751    0.648213    0.175163
H      4.177761   -0.449021   -0.903281
H     -4.597222    0.026721   -0.786501
H     -2.868603   -0.239828   -1.359420
H     -3.350298    1.266305   -0.531267
H     -1.471425   -2.063561   -0.481699
H     -0.729304   -2.086876    1.155566
H      0.307540   -2.075061   -0.316022
H      2.778135    1.954373    0.302762
H      3.154572    0.521938    1.394607
H     -3.858224    0.006620    1.518311
H     -3.151581   -1.476437    0.763794
H      1.618893    0.519566   -1.263650
H      1.992899   -0.924822   -0.284177
H     -1.854439    1.282499    1.175890
H     -1.461748   -0.171368    2.144457
H      0.401968    1.556567    0.621908
H      0.769220    0.113938    1.662814
H     -0.931689    0.164920   -0.859914
