89

C      9.388665   -2.070059   -2.946107
C     10.613672   -3.078106   -1.030688
C     -6.809865   -5.054229   -2.584597
C     -9.374766    3.055572   -0.573797
C     -5.471023   -5.190432   -2.319220
C     -7.517741   -3.976419   -2.078734
C     -8.862424    2.484474    0.576137
C     -8.583121    3.814274   -1.389226
C     -4.854767   -4.234005   -1.542493
C     -6.903294   -3.027295   -1.307220
C     -7.521456    2.676265    0.922402
C     -7.274328    3.986296   -1.027661
C      2.468335   -1.709241    1.178845
C      4.806344   -2.348947    0.574677
C     -1.090223    3.796352    0.967709
C      1.938759   -0.253304    1.037434
C      6.188805   -2.170198    0.632062
C     -2.460253    3.784037    0.809927
C     -2.924071    0.728058   -1.221983
C     -3.598069   -0.238414   -0.295318
C     -0.887895    1.820575   -0.287505
C      3.586790    0.448996    2.758560
C      5.782949   -0.313909    2.058649
C      1.644033    2.735378    2.030777
C     -4.878364   -2.133469   -0.192834
C     -5.314279    3.665202    0.420341
C      8.994364   -1.632386    0.835306
C     -5.548811   -3.153589   -1.031407
C     -6.719976    3.438723    0.105843
C      3.951563   -1.523471    1.246992
C     -0.269107    2.821359    0.426750
C     -2.259245    1.803018   -0.448898
C      4.431350   -0.491220    2.001015
C      2.105410    0.354098    2.384728
C      6.682714   -1.134635    1.386310
C      1.215914    2.905264    0.617240
C     -3.082330    2.787488    0.097348
C      8.778595   -1.476059   -0.631917
N      1.413816    1.533500    2.695377
N      9.589694   -2.205723   -1.525975
O      1.624794    4.241009    0.274721
O      7.865693   -0.686766   -1.055607
O     -4.228645   -1.229229   -1.068233
O      8.034712   -0.865110    1.507797
O     -4.447559    2.702375   -0.108443
H     10.319469   -1.720246   -3.465588
H      8.550662   -1.375829   -3.169667
H      9.130286   -3.034721   -3.445786
H     11.612647   -2.589940   -1.129961
H     10.465308   -3.408280    0.008283
H     10.601167   -4.003523   -1.672711
H     -7.313575   -5.794387   -3.192064
H    -10.414526    2.901068   -0.835721
H     -4.911611   -6.018390   -2.704962
H     -8.576173   -3.943938   -2.335468
H     -9.460570    1.889544    1.226989
H     -8.936790    4.285966   -2.304814
H     -3.787289   -4.295269   -1.300060
H     -7.492239   -2.205700   -0.934629
H     -7.153622    2.223013    1.816506
H     -6.640500    4.597830   -1.686534
H      2.120652   -2.156683    2.123811
H      2.182898   -2.287487    0.287844
H      4.461075   -3.174692   -0.030249
H     -0.585195    4.583945    1.531842
H      0.881745   -0.374965    0.816805
H      2.572358    0.151697    0.236378
H      6.840769   -2.866251    0.086929
H     -3.082784    4.563843    1.245627
H     -3.671114    1.119343   -1.931802
H     -2.141713    0.188201   -1.789097
H     -4.437133    0.289180    0.231501
H     -2.930992   -0.745333    0.407592
H     -0.245053    1.059215   -0.712621
H      3.726295    0.223329    3.834474
H      3.977487    1.474186    2.581129
H      6.202138    0.507052    2.657422
H      2.705435    3.103544    2.081954
H      1.095137    3.555557    2.606158
H     -5.630601   -1.589891    0.423060
H     -4.167254   -2.582979    0.526440
H     -5.130039    3.690520    1.520686
H     -4.984018    4.665372    0.013119
H     10.006821   -1.288857    1.144992
H      8.870357   -2.717012    1.070014
H      1.719084   -0.438851    3.111503
H      1.760028    2.282912   -0.083700
H      0.519059    1.436074    3.194530
H      1.146552    4.435740   -0.565399
