66

C      7.923067   -0.799787   -3.266061
C     -4.747295    1.716541   -1.484477
C     -6.958820   -1.583447   -2.200388
C      7.761560    0.343946   -1.034251
C      6.667135   -1.717205   -1.302335
C     -1.560322    1.049247    1.688739
C      1.553272   -0.705032    0.886238
C     -2.794060   -0.590774   -2.027753
C      7.320961    0.413628    0.268479
C      6.213789   -1.657656    0.019405
C     -2.902266    1.132834    1.301642
C      2.872947   -0.755610    1.285064
C     -4.268829   -0.733588   -2.263947
C     -6.542772   -0.049123    1.272433
C      3.308749    2.200733    3.228491
C     -5.768207    1.086059    0.628429
C      4.565710    1.662941    3.311785
C     -1.124508   -0.073658   -0.330539
C      1.259661    1.357263    2.045446
C      7.446361   -0.721351   -1.851393
C     -0.654191    0.436684    0.861463
C      0.737743    0.350514    1.262976
C     -2.439712    0.002721   -0.720759
C      2.574981    1.328929    2.456395
C      6.532699   -0.600185    0.813464
C     -3.348197    0.618711    0.112213
C      3.375307    0.274423    2.075141
C     -5.001455   -0.687997   -0.968712
C     -7.151782   -0.858960    0.167676
C     -4.748581    0.674790   -0.351303
N     -6.374900   -1.044948   -1.001701
N      4.591815    0.504573    2.613413
O     -8.294612   -1.370790    0.226472
O      5.769646   -1.850763    3.018612
O      7.112459    0.125950    3.282852
S      6.013842   -0.467656    2.472396
H      6.992157   -0.992702   -3.874975
H      8.668972   -1.587722   -3.398816
H      8.293731    0.210025   -3.540493
H     -4.827924    2.707788   -0.953458
H     -5.627264    1.627701   -2.121726
H     -3.783301    1.726014   -2.008824
H     -7.094125   -0.809573   -3.000847
H     -7.988197   -2.001698   -2.028804
H     -6.368280   -2.461760   -2.592056
H      8.372496    1.139680   -1.441030
H      6.417161   -2.559963   -1.946991
H     -1.225499    1.460967    2.632935
H      1.095521   -1.469198    0.272278
H     -2.342145   -1.615324   -2.102629
H     -2.292682    0.009390   -2.830820
H      7.568249    1.255272    0.918649
H      5.612568   -2.471745    0.387677
H     -3.547015    1.630263    2.011196
H      3.498843   -1.582931    0.989222
H     -4.575219    0.081084   -2.953827
H     -4.482274   -1.685139   -2.833903
H     -7.383649    0.410871    1.831114
H     -5.954154   -0.644930    1.965748
H      2.918815    3.118388    3.660762
H     -6.574601    1.672696    0.083599
H     -5.448836    1.783006    1.424541
H      5.382434    2.132072    3.865472
H     -0.386523   -0.556324   -0.972527
H      0.654120    2.195939    2.358229
H     -4.494575   -1.443425   -0.295302
