29

C      3.645036    0.873639    0.870170
C     -2.983836    1.427607   -0.038698
C     -0.600830   -0.964659    1.284494
C      2.336000    0.727940    0.144549
C     -3.007360   -0.069778   -0.286072
C      1.964344   -0.718075   -0.073684
C     -1.727584   -0.554069   -0.901701
C      0.676516   -0.903629   -0.788423
C     -0.511174   -0.293199   -0.054098
H      3.849449   -0.079504    1.409455
H      3.574713    1.687199    1.601664
H      4.492359    1.132204    0.172968
H     -4.023878    1.786938    0.045880
H     -2.422495    1.619846    0.873096
H     -2.532794    1.892224   -0.928930
H      0.070454   -0.451825    2.018709
H     -1.608320   -0.952342    1.722478
H     -0.297403   -2.032118    1.191810
H      2.388650    1.261550   -0.807601
H      1.534205    1.177688    0.786446
H     -3.811704   -0.246279   -1.031487
H     -3.297714   -0.588159    0.630443
H      1.959451   -1.235020    0.905904
H      2.768362   -1.171436   -0.688804
H     -1.811215   -1.632455   -1.073647
H     -1.601663   -0.054831   -1.866480
H      0.529943   -1.987230   -0.963732
H      0.786380   -0.445395   -1.809572
H     -0.337893    0.793165    0.077672
