46

C     -2.179009    0.650814    1.686331
C     -4.582809   -1.806280    0.241257
C      4.581955   -0.825789    0.756527
C      4.769869    1.234862   -0.373101
C      1.845981    1.574042    0.251594
C     -0.333552   -2.063113    0.104526
C      5.974777   -0.946252    0.760159
C      6.147561    1.114266   -0.368747
C      0.445306    1.620356    0.257543
C     -1.829436   -1.956833    0.233586
C     -3.778835    1.903845   -0.217678
C     -2.319894    1.696682   -0.583222
C      1.714011   -0.758866    0.150330
C      3.961547    0.267793    0.189067
C      2.501656    0.372148    0.197399
C      0.328012   -0.734593    0.155248
C      6.775608    0.024653    0.196241
C     -0.299654    0.464737    0.209065
C     -2.383455   -0.705105   -0.351644
C     -4.505932    0.615986   -0.156202
C     -1.766224    0.561640    0.218424
F      8.130681   -0.084443    0.195491
N     -3.809734   -0.638417   -0.090366
O     -5.759251    0.634867   -0.162458
H     -1.476096   -0.039491    2.238596
H     -1.981196    1.653998    2.092453
H     -3.179181    0.270445    1.882011
H     -5.366988   -1.500739    0.963554
H     -4.008772   -2.611522    0.709187
H     -5.118496   -2.178731   -0.675906
H      3.992624   -1.607011    1.207858
H      4.292527    2.104683   -0.825181
H      2.426079    2.484836    0.289569
H     -0.002951   -2.573119   -0.804881
H      0.036858   -2.643369    0.974727
H      6.468349   -1.801295    1.203588
H      6.791485    1.872867   -0.810040
H      0.026253    2.611102    0.305272
H     -2.158631   -2.000685    1.311614
H     -2.261935   -2.810641   -0.326827
H     -4.245427    2.603470   -0.924127
H     -3.788147    2.336705    0.813679
H     -2.340293    1.342176   -1.656499
H     -1.800475    2.646560   -0.510338
H      2.264992   -1.708729    0.107496
H     -2.199757   -0.668509   -1.446980
