28

C      3.743721   -0.252010    0.058435
C      3.050857   -1.233371   -0.617353
C      3.022579    0.815707    0.540477
C      1.691100   -1.131994   -0.793263
C      1.661114    0.919936    0.365897
C     -2.332952    1.031286    0.677195
C     -0.931411    1.249028   -1.256048
C     -1.716648   -1.341984    1.127372
C      0.963507   -0.060555   -0.310212
C     -1.201112    0.060901    0.830877
C     -2.294152    1.508733   -0.718350
C     -0.503419    0.029201   -0.511099
O     -2.523507   -1.686369    0.020893
O     -3.183293    2.020051   -1.340735
H      4.821582   -0.352473    0.186471
H      3.569757   -2.105082   -1.022905
H      3.568643    1.597361    1.077738
H      1.145574   -1.914128   -1.330718
H      1.091592    1.764864    0.747551
H     -2.261792    1.881498    1.407744
H     -3.298032    0.498746    0.840159
H     -0.324631    2.147003   -1.027820
H     -1.008727    1.049412   -2.342064
H     -0.873561   -2.038755    1.153869
H     -2.306190   -1.381702    2.050775
H     -0.475231    0.353582    1.603552
H     -0.831676   -0.863494   -1.073937
H     -2.263689   -2.565392   -0.344500
