49

C     -2.875914   -0.153877   -1.547299
C     -4.994547   -1.494870    0.904624
C      1.220920    0.766572   -1.635804
C      4.002765   -0.118003   -2.100542
C     -0.632872   -1.083706    1.697521
C     -0.143143    0.857159   -1.458315
C      5.367402   -0.246626   -2.217125
C     -2.056363   -1.496097    1.291571
C     -3.893351    2.120771    0.613365
C     -2.680781    1.881146   -0.229704
C      1.333512   -0.520336    0.355808
C      4.232039   -0.153109    0.277889
C      1.970258    0.066711   -0.713857
C      3.434861   -0.071131   -0.846253
C     -0.028485   -0.420604    0.518290
C     -0.778410    0.268250   -0.386009
C      5.596313   -0.281738    0.148134
C      6.150184   -0.327135   -1.101632
C     -2.766951   -0.237419    0.958296
C     -4.831558    0.965710    0.656300
C     -2.253244    0.429988   -0.296606
C      6.447558   -0.370642    1.367671
Cl     7.889190   -0.491517   -1.263503
F      5.654608   -0.300781    2.495010
F      7.336413    0.678841    1.384750
F      7.131964   -1.573603    1.369747
N     -4.189198   -0.316939    0.847159
O     -6.070871    1.079188    0.539090
H     -2.742993    0.624702   -2.349607
H     -2.315463   -1.050559   -1.918940
H     -3.958499   -0.324437   -1.459812
H     -5.748022   -1.499359    0.062741
H     -5.596306   -1.479155    1.844264
H     -4.432165   -2.421473    0.818741
H      1.743367    1.218849   -2.468301
H      3.349363   -0.050834   -2.957754
H     -0.058046   -1.915475    2.092949
H     -0.794440   -0.264284    2.457102
H     -0.728479    1.409572   -2.188613
H      5.758009   -0.277376   -3.229150
H     -2.520148   -1.912527    2.217033
H     -2.031847   -2.230682    0.474340
H     -3.519848    2.318995    1.660654
H     -4.408047    3.045745    0.298488
H     -1.794888    2.445849    0.147223
H     -2.910515    2.278341   -1.251462
H      1.928290   -1.061561    1.066435
H      3.760790   -0.114709    1.260581
H     -2.552415    0.491827    1.794512
