28

C      3.615504   -0.887665   -0.295090
C      2.878577   -1.598550    0.626844
C      2.981558    0.178458   -0.921003
C      1.570471   -1.260515    0.910100
C      1.670548    0.510673   -0.631556
C     -1.780608    1.369426   -0.934933
C     -0.594934    1.548534    1.093713
C     -2.550266   -0.852463   -0.311606
C      0.946508   -0.216941    0.298918
C     -1.306622   -0.032299   -0.613507
C     -1.872182    1.956747    0.441132
C     -0.446425    0.120896    0.619288
O     -2.171732   -2.175243   -0.003231
O     -2.765596    2.614637    0.934040
H      4.623284   -1.145730   -0.515299
H      3.372323   -2.429828    1.115152
H      3.517877    0.783594   -1.666197
H      1.074865   -1.893726    1.661333
H      1.242181    1.352700   -1.157324
H     -2.763096    1.372911   -1.442602
H     -1.055517    1.933582   -1.532774
H      0.192190    2.219950    0.687125
H     -0.667257    1.600614    2.195122
H     -3.097293   -0.479606    0.553506
H     -3.160259   -0.895253   -1.233050
H     -0.739310   -0.479016   -1.443128
H     -0.827906   -0.585216    1.384173
H     -1.886885   -2.630669   -0.817224
