53

C     -3.688774    1.585850    0.430733
C     -4.258627   -2.282132    2.073359
C      6.695871   -2.682888    0.222460
C      6.957825    1.234532    1.564577
C      6.808659   -0.032926    1.069749
C      6.129097    2.206627    1.055457
C     -1.005275    0.303971    1.127059
C     -0.670188    1.160150   -2.988914
C     -1.939294    0.934090   -2.449648
C     -2.141919   -0.575351    1.515489
C     -5.706293   -0.210523   -0.829189
C     -4.384059    0.147720   -1.471630
C      0.341953    0.830771   -0.876497
C     -0.916704    0.600350   -0.310607
C      0.472687    1.112259   -2.220094
C     -2.041377    0.658790   -1.123577
C      5.895545   -0.374232    0.113993
C      5.210468    1.876163    0.097546
C     -3.117625   -0.851140    0.402078
C     -5.545587   -1.195501    0.276311
C      5.038949    0.598014   -0.421332
C      3.377379    1.295784   -1.791779
C     -3.349892    0.396938   -0.424235
N      4.122076    0.464410   -1.322532
N     -4.307293   -1.437667    0.910086
O     -6.600540   -1.815601    0.623177
O      5.837004   -1.705542   -0.313269
S      2.085082    1.413781   -2.976212
S      3.974695    2.803146   -0.807658
H     -3.088016    2.452511    0.086159
H     -3.467937    1.442156    1.502950
H     -4.749877    1.893579    0.336012
H     -3.516539   -3.121601    1.931942
H     -5.229325   -2.775492    2.289898
H     -3.985432   -1.678077    2.947915
H      7.756818   -2.312703    0.106376
H      6.622719   -3.650286   -0.311289
H      6.521182   -2.883843    1.295209
H      7.672601    1.488675    2.309090
H      7.452280   -0.817196    1.457198
H      6.163942    3.238126    1.376623
H     -0.025267   -0.141532    1.449085
H     -1.088028    1.244992    1.732063
H     -0.566153    1.379502   -4.034915
H     -2.827035    0.973337   -3.057907
H     -2.677909   -0.198570    2.435812
H     -1.729197   -1.565369    1.827629
H     -6.200060    0.712196   -0.486087
H     -6.351456   -0.643312   -1.628482
H     -4.557289    1.133703   -1.995370
H     -4.017862   -0.630284   -2.153231
H      1.247388    0.797316   -0.289795
H     -2.633389   -1.592531   -0.281785
