49

C      7.583873    0.197777   -0.672862
C     -6.235019   -0.688729    0.789079
C     -5.717379   -0.084695   -0.338061
C     -5.475689   -1.427179    1.670201
C     -0.502613   -1.768314   -1.802913
C     -4.361531   -0.263264   -0.543495
C     -4.132567   -1.581949    1.432374
C     -1.925038   -1.698554   -1.346178
C      4.844054    0.686665   -0.719013
C      4.674358    0.389219    1.608192
C      3.489039    0.935383   -0.791815
C      3.319064    0.637731    1.537390
C      0.430342   -0.799374   -1.191881
C     -3.561263   -0.993305    0.310002
C      5.466115    0.408701    0.479067
C      2.689082    0.917901    0.333873
C     -2.111563   -1.134801    0.015746
C     -1.348666    0.160601    0.105713
C     -1.676231    1.143943   -0.928445
N     -2.194722    2.290233   -0.643407
N      0.064394   -0.226108    0.058129
O     -1.438908    0.877291   -2.268864
O     -2.485216    2.693372    0.636308
O      0.477402    1.865763    1.559427
O      0.626558    2.197864   -0.834023
O      6.839873    0.158222    0.541065
S      0.969722    1.227030    0.286808
H      7.195429   -0.555827   -1.380668
H      7.452288    1.191736   -1.181438
H      8.646210    0.013232   -0.516257
H     -7.311821   -0.553571    0.962416
H     -6.352755    0.486605   -1.001317
H     -5.947343   -1.889072    2.558601
H     -0.132131   -2.826609   -1.660449
H     -0.495467   -1.622456   -2.904116
H     -3.942885    0.203348   -1.422823
H     -3.509335   -2.152078    2.099421
H     -2.356296   -2.743574   -1.329784
H     -2.566210   -1.153719   -2.065730
H      5.481503    0.700335   -1.614648
H      5.136988    0.172123    2.571033
H      3.005634    1.155354   -1.750367
H      2.674213    0.627406    2.419338
H      0.707317    0.039698   -1.896234
H      1.418942   -1.323363   -1.029156
H     -1.682072   -1.787161    0.820152
H     -1.503057    0.614066    1.101565
H     -1.552744    1.581985   -3.002724
H     -2.673880    3.700115    0.740176
