19

C     -3.579944   -0.096117   -0.143572
C      1.248681    0.771874   -0.367401
C      0.961989   -1.068950    1.026205
C     -2.114667   -0.268092   -0.093414
C      0.584229    0.400861    0.964103
C      2.489014   -0.043536   -0.249069
N      2.312354   -1.044742    0.516496
O     -1.594865   -1.084305   -0.807988
S      4.030141    0.330382   -1.072931
S     -1.157478    0.726917    1.012887
H     -3.914239    0.807742    0.405731
H     -4.021813   -0.973132    0.414699
H     -3.979355   -0.141287   -1.173675
H      0.682174    0.366363   -1.228400
H      1.416310    1.839214   -0.469510
H      0.912436   -1.466318    2.056186
H      0.360905   -1.665660    0.311275
H      1.173803    0.908589    1.741665
H      4.190326    1.700197   -1.289493
