49

C     -2.188162    1.570965    0.521366
C     -5.538549   -1.342852    1.234356
C     -1.222145   -1.210973    1.768018
C      0.623364   -0.828844   -2.024025
C     -0.607266   -0.192152   -1.820303
C     -2.633100   -0.720560    1.859523
C     -4.459301    1.557092   -1.055593
C     -3.244349    0.769865   -1.530427
C      0.619119   -1.672453    0.181486
C      7.559259   -0.331363   -0.468380
C      6.259177    1.974191    0.369244
C     -0.615605   -1.047077    0.420983
C      1.246556   -1.567771   -1.041492
C     -1.196505   -0.320313   -0.593991
C      8.255459    0.776390   -0.042569
C      7.658852    1.943369    0.382490
C      6.154143   -0.312999   -0.486373
C      5.555580    0.851812   -0.062158
C     -3.268733   -0.686437    0.511553
C     -5.258197    0.649603   -0.184005
C      4.183831   -1.287345   -0.884918
C     -2.493278    0.326764   -0.322890
Cl    10.031496    0.735189   -0.026541
Cl     8.532855    3.343817    0.920688
N      5.326117   -1.261358   -0.855017
N     -4.671765   -0.441003    0.505643
O     -6.491333    0.843315   -0.045267
S      2.815506   -2.374261   -1.314873
S      3.828289    0.464249   -0.237368
H     -1.893784    2.359887   -0.201968
H     -3.047331    1.897131    1.107615
H     -1.275472    1.394750    1.149293
H     -6.621799   -1.063199    1.109684
H     -5.261280   -1.450841    2.291455
H     -5.456158   -2.369505    0.781144
H     -0.566685   -0.787284    2.564765
H     -1.253443   -2.318685    1.985799
H      1.093141   -0.728636   -2.996560
H     -1.022256    0.362602   -2.638872
H     -2.595400    0.312331    2.309922
H     -3.238108   -1.315144    2.602864
H     -4.190092    2.454177   -0.487642
H     -5.088463    1.890919   -1.927622
H     -2.605360    1.502225   -2.069858
H     -3.588543   -0.052893   -2.155542
H      1.107082   -2.252812    0.955426
H      8.135726   -1.199272   -0.782155
H      5.694840    2.848675    0.685693
H     -3.087934   -1.693282    0.037399
