49

C     -2.138720   -0.786842   -1.431441
C     -5.490151   -1.476668   -0.084732
C     -1.423183   -1.755853    1.129451
C      0.687828    1.874189    0.976655
C     -0.495853    1.755098    0.259949
C     -2.885124   -1.524395    1.275504
C     -4.218403    2.067848   -0.314653
C     -3.072333    1.430879   -1.085787
C      0.515110   -0.313150    1.781412
C      6.695931   -1.391885    0.139079
C      7.223169    1.083585   -0.965987
C     -0.680217   -0.494871    1.083334
C      1.217467    0.865543    1.742361
C     -1.170130    0.566218    0.321353
C      7.725264   -1.217157   -0.735966
C      8.027806   -0.009801   -1.311407
C      5.868705   -0.321661    0.509022
C      6.181516    0.872282   -0.070969
C     -3.379516   -0.253406    0.676583
C     -5.277885    0.995682   -0.191766
C      4.152033    0.557717    1.646009
C     -2.440625    0.298590   -0.384406
Cl     8.724805   -2.602807   -1.157510
Cl     9.338721    0.187562   -2.418959
N      4.840712   -0.301625    1.329346
N     -4.705108   -0.290178    0.140022
O     -6.486755    1.188444   -0.354209
S      2.735697    1.049528    2.648462
S      4.932112    1.966012    0.631613
H     -2.746432   -1.693503   -1.264883
H     -2.444514   -0.434546   -2.463187
H     -1.053425   -0.968867   -1.526229
H     -4.930291   -2.323448   -0.505863
H     -6.007499   -1.732371    0.863524
H     -6.290043   -1.237139   -0.812749
H     -1.063081   -2.293288    2.063308
H     -1.146572   -2.477797    0.317185
H      1.197226    2.839568    0.902023
H     -0.871628    2.590017   -0.330781
H     -3.145831   -1.556729    2.354387
H     -3.402419   -2.428342    0.837176
H     -4.653909    2.855867   -0.947641
H     -3.912909    2.449072    0.668925
H     -2.427091    2.251655   -1.431673
H     -3.576410    1.076058   -2.049885
H      0.895697   -1.130487    2.370439
H      6.547261   -2.394655    0.534554
H      7.397783    2.060428   -1.375198
H     -3.368788    0.529628    1.493155
