58

C      7.497914    1.257868    0.044693
C     -3.372576   -0.890672   -1.255126
C     -6.137484    2.377972   -0.559674
C      6.090948    1.763542   -0.097275
C      6.215844   -2.755273   -0.941486
C      5.328931    0.920575   -1.116338
C      6.129357   -1.423993   -1.253673
C      5.375781   -3.188560    0.079770
C     -1.989831    1.988615    0.004523
C     -0.694397   -1.287660    2.357088
C     -1.907396   -1.377641    1.676940
C     -3.296689    1.840456   -0.727339
C     -5.921239   -1.414443   -0.064427
C     -4.642246   -1.367646    0.780969
C     -0.403086    0.884404    1.483134
C      5.298022   -0.509529   -0.650457
C     -1.624988    0.789951    0.799871
C      0.064264   -0.146665    2.259214
C     -2.393440   -0.353106    0.892798
C      4.530854   -2.287001    0.701293
C     -4.203565    1.011926    0.139556
C     -6.436216   -0.021319   -0.126125
C      4.457181   -0.940899    0.370960
C      2.883991   -0.596839    1.933300
C     -3.677911   -0.409090    0.152085
N      3.583729   -0.271336    1.093230
N     -5.583829    1.105973   -0.176534
O     -7.689281    0.128856   -0.132378
S      1.608601    0.025158    3.096026
S      3.327303   -2.452961    2.026719
H      7.870468    0.831989   -0.912901
H      8.199684    2.095798    0.295925
H      7.594227    0.513338    0.862506
H     -3.967807   -0.400929   -2.024438
H     -3.590615   -1.994933   -1.333759
H     -2.291375   -0.786705   -1.478908
H     -5.610382    3.149571    0.075211
H     -5.875735    2.646770   -1.606965
H     -7.201163    2.493091   -0.347882
H      6.079599    2.808653   -0.426358
H      5.609362    1.678355    0.909153
H      6.888484   -3.387998   -1.461913
H      5.846516    0.961944   -2.071123
H      4.304998    1.324505   -1.251680
H      6.782536   -1.064719   -2.054749
H      5.370321   -4.207217    0.394232
H     -1.157574    2.284653   -0.682952
H     -2.084409    2.865973    0.709154
H     -0.375165   -2.146671    2.961981
H     -2.519601   -2.271881    1.743311
H     -3.748834    2.860140   -0.869624
H     -3.131564    1.435891   -1.726987
H     -5.725037   -1.739087   -1.090642
H     -6.660545   -2.066092    0.416598
H     -4.925421   -1.091901    1.796417
H     -4.224800   -2.394320    0.683260
H      0.194093    1.803852    1.395769
H     -4.068809    1.397267    1.191731
