58

C      6.169541   -1.829683   -0.428189
C     -3.328864    0.086456   -1.807229
C     -6.546674   -1.083123   -1.354462
C      6.654451   -0.816762   -1.409715
C      6.369718    3.175013    0.854965
C      5.812367    0.388493   -1.589759
C      6.396192    2.318372   -0.215589
C      5.470243    2.849198    1.867033
C     -3.291652   -2.432640    1.211071
C      0.160484   -0.008714    0.628767
C     -1.037277    0.426322    0.115077
C     -4.286668   -2.115062    0.110004
C     -5.102693    1.929730    0.472818
C     -3.703038    1.610376    0.046419
C     -0.868760   -1.928675    1.474546
C      5.622658    1.196662   -0.355921
C     -2.106236   -1.530645    0.972661
C      0.278351   -1.202586    1.325235
C     -2.185960   -0.342469    0.287913
C      4.684062    1.716390    1.732287
C     -4.580528   -0.655023    0.229388
C     -6.130491    1.136192   -0.262951
C      4.715462    0.858587    0.652799
C      3.122068   -0.456993    1.531917
C     -3.449112    0.183203   -0.292921
N      3.879198   -0.146865    0.735428
N     -5.769133   -0.245037   -0.490045
O     -7.211557    1.594599   -0.658505
S      1.868476   -1.708422    1.963033
S      3.419459    0.966363    2.784517
H      6.814726   -2.761403   -0.461992
H      6.333004   -1.424936    0.591456
H      5.158087   -2.195616   -0.617088
H     -2.889514   -0.866441   -2.131179
H     -4.301066    0.212764   -2.312602
H     -2.700655    0.951869   -2.117770
H     -6.994557   -0.532293   -2.206587
H     -7.356427   -1.633570   -0.826802
H     -5.839203   -1.819610   -1.835786
H      6.701626   -1.333529   -2.410160
H      7.728365   -0.557883   -1.202579
H      6.965769    4.049594    0.975383
H      4.804548    0.039077   -1.969755
H      6.271324    1.019388   -2.364008
H      7.108748    2.575021   -1.019257
H      5.358879    3.442220    2.753427
H     -2.987834   -3.497131    1.216760
H     -3.773717   -2.158391    2.189418
H      1.078992    0.574622    0.507974
H     -1.042517    1.360789   -0.410484
H     -5.190284   -2.722325    0.245500
H     -3.758800   -2.315038   -0.847947
H     -5.180315    1.722593    1.564553
H     -5.340448    3.007667    0.347147
H     -2.982519    1.900931    0.842472
H     -3.470144    2.304122   -0.814437
H     -0.800268   -2.870055    2.018079
H     -4.739886   -0.405692    1.285843
