46

C     -2.225895    0.624752    1.428499
C     -4.704052   -1.604651    0.067700
C      1.881748    1.290797    0.455296
C     -0.484915   -1.936586   -0.941476
C      0.497245    1.379177    0.422499
C     -1.850234   -1.871980   -0.254728
C     -3.618080    2.072453   -0.447753
C     -2.174202    1.784187   -0.800999
C      1.715099   -0.893484   -0.419169
C      4.581461   -1.132957    0.290472
C      4.752240    1.185213   -0.092057
C      6.730292   -0.110994    0.168786
C      2.484406    0.144527    0.030205
C      0.319006   -0.803833   -0.452040
C      3.953935    0.074955    0.074925
C      5.954099   -1.230424    0.337766
C      6.140519    1.106570   -0.047512
C     -0.299351    0.350246   -0.024613
C     -2.487965   -0.606490   -0.690842
C     -4.437743    0.840495   -0.429225
C     -1.762791    0.562111   -0.011338
Cl     6.744184   -2.770169    0.612495
Cl     7.081730    2.567117   -0.269482
N     -3.881533   -0.461305   -0.348745
O     -5.682243    0.958702   -0.487474
H     -2.203363    1.672820    1.817018
H     -1.478440    0.073643    2.045263
H     -3.211959    0.149528    1.589385
H     -5.151828   -2.115845   -0.809749
H     -5.514423   -1.265026    0.748506
H     -4.063611   -2.312021    0.605806
H      2.495989    2.107817    0.809219
H     -0.008197   -2.914649   -0.832423
H     -0.708067   -1.764699   -2.035679
H      0.064514    2.309752    0.770286
H     -1.631713   -1.855053    0.837793
H     -2.443839   -2.760354   -0.549181
H     -3.632097    2.471346    0.600295
H     -4.059873    2.837835   -1.114913
H     -2.069899    1.535154   -1.867020
H     -1.558857    2.668684   -0.566001
H      2.220810   -1.790580   -0.750057
H      3.991492   -2.010495    0.423296
H      4.264659    2.130666   -0.260447
H      7.822515   -0.200167    0.208478
H     -2.350771   -0.486790   -1.780045
