25

C      2.642222   -0.113273   -0.328602
C     -1.941358    1.733485   -0.376632
C     -0.709457   -1.725291    0.531872
C      1.828274    0.008743    0.916497
C     -1.886045    0.338668    0.143145
C      0.444203    0.473956    0.704172
C     -0.269766   -0.546351   -1.506050
C     -0.498287   -0.324608   -0.088351
Cl     0.630965   -1.925475   -2.175113
O     -0.684119    0.210964   -2.401260
H      2.911033   -1.163644   -0.503831
H      3.641992    0.408812   -0.226742
H      2.161162    0.364254   -1.180563
H     -1.930486    2.453688    0.483866
H     -1.038844    1.972159   -0.956923
H     -2.857828    1.903633   -0.985134
H     -1.358212   -2.285318   -0.161437
H      0.255208   -2.260538    0.596697
H     -1.226542   -1.648973    1.501591
H      1.905028   -0.908981    1.548823
H      2.334792    0.803251    1.547777
H     -2.099042    0.357251    1.230077
H     -2.670552   -0.315627   -0.309967
H      0.483163    1.528256    0.285749
H     -0.067504    0.660963    1.710341
