54

C     -3.360110    1.824816   -0.374642
C      7.594078    0.729526    0.572302
C      7.265223   -1.708714   -0.024101
C     -5.635220   -1.833530   -0.692855
C      3.267691    0.268305   -0.556582
C      3.291857   -0.296782    1.736402
C      0.500973    0.680265    1.838161
C     -1.764753   -0.203129   -1.729546
C      4.633780    0.119837   -0.685461
C      4.655763   -0.449297    1.625155
C     -0.884603    0.816334    1.791973
C     -3.077496   -0.844331   -1.434347
C     -5.200185    1.131190    1.732081
C     -3.711863    0.898273    1.892966
C      0.399752   -0.035993   -0.460807
C      2.580349    0.069740    0.623388
C      1.117841    0.247609    0.682518
C     -0.967802    0.100437   -0.499655
C      5.343248   -0.249620    0.440524
C     -1.601344    0.532929    0.649564
C     -3.570769   -0.634028   -0.026837
C     -5.782476    0.113123    0.814102
C     -3.078050    0.666938    0.566264
N      6.749367   -0.407740    0.329289
N     -5.006936   -0.766551    0.046545
O     -7.044616    0.064418    0.745467
H     -3.998173    1.540371   -1.223773
H     -2.434660    2.329678   -0.716101
H     -3.934802    2.620656    0.183654
H      8.640795    0.448909    0.372803
H      7.255077    1.554744   -0.091631
H      7.493933    1.041110    1.645197
H      7.385520   -2.279974    0.933231
H      6.525058   -2.300829   -0.632539
H      8.230773   -1.616956   -0.574223
H     -6.718638   -1.664664   -0.853155
H     -5.102511   -1.950438   -1.657028
H     -5.440816   -2.777533   -0.117452
H      2.688400    0.562378   -1.445108
H      2.762773   -0.457867    2.677500
H      1.075300    0.899474    2.728433
H     -1.165074   -0.928019   -2.354771
H     -1.859250    0.701261   -2.381722
H      5.146339    0.282224   -1.623673
H      5.234304   -0.739380    2.497496
H     -1.362781    1.150004    2.685021
H     -3.859123   -0.402525   -2.119820
H     -3.063259   -1.930015   -1.666205
H     -5.652772    0.937680    2.745702
H     -5.459023    2.157695    1.456707
H     -3.245129    1.810795    2.333711
H     -3.594485    0.003881    2.530120
H      0.881447   -0.380014   -1.382242
H     -3.142922   -1.446671    0.602649
