25

C      2.607994   -0.213110    0.111948
C     -1.805008    0.933734    1.260815
C      0.279232    0.036365   -1.788726
C      1.487228   -0.341391    1.079102
C     -1.058965    1.205127   -0.028308
C      0.202754   -0.866748    0.571299
C     -1.704803   -0.939125   -0.867981
C     -0.488987   -0.120495   -0.502172
Cl    -2.770494   -0.246799   -2.072166
O     -1.966391   -2.007730   -0.387398
H      2.587344    0.641270   -0.562716
H      2.830079   -1.194626   -0.377472
H      3.535065   -0.043264    0.745559
H     -2.601725    1.690698    1.421373
H     -2.342863   -0.053182    1.168363
H     -1.113994    0.964415    2.108410
H      0.633451    1.095801   -1.847976
H      1.104885   -0.650122   -1.931205
H     -0.394021   -0.109641   -2.680699
H      1.382447    0.608902    1.650711
H      1.833688   -1.080154    1.865966
H     -1.747977    1.545989   -0.836233
H     -0.305330    1.962510    0.165637
H      0.320089   -1.928944    0.282672
H     -0.503700   -0.889480    1.451198
