58

C      3.576931   -1.119449    1.619521
C      5.913073   -0.928963   -1.627062
C     -6.622293    0.239297    2.610037
C     -7.339074    0.149309    1.442937
C     -4.593211   -0.155361   -3.430992
C     -3.218910   -0.142539   -3.432748
C     -5.250515    0.247793    2.561324
C     -6.723932    0.064699    0.188332
C     -5.333349   -0.087300   -2.244654
C     -2.531998   -0.060582   -2.236281
C     -0.426870    1.096562    0.908430
C      1.942873   -1.990788   -0.637631
C      0.938146    1.126250    1.081020
C      3.170151   -1.456657   -1.307167
C      5.224141    1.112717    1.577857
C      3.744825    1.287434    1.312811
C     -0.309509   -0.940030   -0.270940
C     -3.286441    0.172277    1.279691
C     -4.642680    0.164192    1.321792
C     -1.083965    0.077971    0.237007
C      1.077739   -0.909189   -0.095467
C     -5.352147    0.072877    0.134860
C     -4.640843   -0.006703   -1.068689
C     -3.236453    0.006404   -1.060235
C     -2.546831    0.094816    0.113725
C      1.701198    0.118806    0.577669
C      3.745309   -0.234288   -0.647674
C      5.847268    0.176307    0.617393
C      3.179425    0.043470    0.705419
N      5.188839   -0.319227   -0.528404
O      7.026178   -0.193940    0.839269
H      4.130216   -1.901414    1.074213
H      2.689853   -1.598360    2.079165
H      4.221850   -0.774608    2.464076
H      6.991750   -0.610812   -1.598766
H      5.913291   -2.018193   -1.608025
H      5.501177   -0.488489   -2.566851
H     -7.111636    0.305146    3.587488
H     -8.427101    0.142712    1.483754
H     -5.166806   -0.219063   -4.352951
H     -2.647373   -0.194125   -4.335548
H     -4.642693    0.318595    3.474305
H     -7.321154   -0.004620   -0.702671
H     -6.407894   -0.100577   -2.298050
H     -1.457148   -0.035875   -2.198748
H     -1.060000    1.894265    1.303762
H      2.144908   -2.800376    0.080392
H      1.334042   -2.481837   -1.454579
H      1.394851    1.944789    1.610838
H      2.947373   -1.194412   -2.360909
H      3.907756   -2.295574   -1.358405
H      5.695073    2.114582    1.398229
H      5.413445    0.871147    2.628953
H      3.506568    2.137898    0.664064
H      3.222386    1.436836    2.302234
H     -0.739948   -1.778733   -0.800368
H     -2.723558    0.244177    2.217779
H      3.553698    0.685794   -1.274532
