46

C      3.118558    1.873362    1.483029
C     -6.660869   -1.939411    0.275834
C     -7.200912   -1.332809   -0.830903
C     -5.330947   -1.760924    0.572179
C     -6.464265   -0.545627   -1.666577
C     -0.269734    1.067002   -1.420894
C      1.625628   -0.704823    1.951757
C      1.093537    1.284925   -1.168915
C      3.122730   -0.738310    2.021604
C      5.205083    1.285598   -0.985601
C      3.976418    1.651106   -0.722709
C     -0.339079   -0.292755    0.524438
C     -3.205574   -0.754930   -0.001129
C     -4.301868    0.412155   -2.154385
C     -4.558630   -0.966411   -0.259241
C      1.032149   -0.067277    0.768995
C     -0.998674    0.255541   -0.546821
C     -5.114365   -0.368372   -1.360097
C      1.716997    0.734634   -0.110202
C     -2.419334    0.027491   -0.809140
C      3.730281   -0.359047    0.684531
C      5.783169    0.091302   -0.368971
C      3.157645    0.924443    0.196452
N     -3.003540    0.591662   -1.872695
N      5.052993   -0.626439    0.408368
O      7.106899   -0.269306   -0.616571
H      2.218362    1.651801    2.053362
H      3.178224    2.918729    1.128062
H      4.014893    1.672166    2.089139
H     -7.291377   -2.553722    0.904748
H     -8.248760   -1.493121   -1.035798
H     -4.860551   -2.212087    1.424038
H     -6.888279   -0.073568   -2.529409
H     -0.774858    1.496942   -2.255588
H      1.272433   -1.783968    1.911838
H      1.166951   -0.305727    2.888679
H      1.656319    1.913109   -1.846174
H      3.444761   -1.772199    2.249763
H      3.445690   -0.105205    2.855409
H      5.839195    1.845697   -1.663476
H      3.633817    2.561844   -1.270373
H     -0.870121   -0.922102    1.216751
H     -2.815572   -1.245224    0.873983
H     -4.777750    0.877516   -3.029161
H      3.174549   -1.151503   -0.059585
H      7.627779   -0.792156    0.101456
