51

C     -3.477454   -1.437279   -1.282591
C     -6.027988    1.070441    0.599794
C     -2.920052   -1.657596    1.609684
C      7.864163   -0.049002   -1.350353
C      0.871282   -0.584798   -0.084491
C     -0.325274   -0.197809   -0.680504
C      7.021780   -1.136949   -1.378658
C     -4.045229   -0.715569    1.351560
C     -3.065128    2.265090   -1.514467
C     -2.823273    0.813443   -1.886862
C     -0.451269   -1.654211    1.591236
C      6.483218    0.906952    0.334761
C     -1.625660   -1.262530    0.987708
C      7.570850    0.970867   -0.476148
C      0.780043   -1.326360    1.072394
C     -1.552703   -0.519454   -0.171419
C      5.584881   -0.178167    0.352056
C      5.928875   -1.188724   -0.555948
C     -3.653756    0.383714    0.429136
C     -4.447241    2.274307   -0.895750
C      3.726582   -1.339742    1.072480
C     -2.857183   -0.136680   -0.757136
N      4.550952   -0.310435    1.077780
N     -4.719061    1.248150    0.042912
N      8.445522    2.132411   -0.426690
O     -5.298507    3.138284   -1.196792
O      8.122662    3.125562    0.453578
O      9.426403    2.187556   -1.159488
S      2.286135   -1.849357    1.878472
S      4.606535   -2.338871   -0.247852
H     -2.894455   -2.331931   -0.985818
H     -4.522530   -1.552288   -0.967940
H     -3.488383   -1.451783   -2.402371
H     -6.437540    0.049079    0.463830
H     -5.931859    1.211778    1.715312
H     -6.747137    1.855897    0.277924
H     -3.173683   -2.728135    1.362722
H     -2.728631   -1.686580    2.722572
H      8.712219    0.005166   -1.979852
H      1.831649   -0.310812   -0.517685
H     -0.227424    0.384816   -1.588102
H      7.169168   -1.992061   -2.034472
H     -4.968361   -1.265849    1.001202
H     -4.391469   -0.226819    2.310587
H     -2.320045    2.668365   -0.829729
H     -3.152835    2.840205   -2.450482
H     -3.681954    0.579065   -2.595622
H     -1.937320    0.766299   -2.548540
H     -0.473153   -2.244609    2.512049
H      6.313849    1.761789    1.007543
H     -2.930212    1.035166    1.008241
