51

C     -2.839423   -1.787676    0.067421
C     -5.426115    0.630175   -0.856098
C      6.283061    1.389257    1.207170
C      4.978250    1.463051    1.645958
C      6.616728    0.681602    0.071950
C      3.938724    0.833306    0.973199
C      1.441174   -0.936376    0.786557
C     -1.466527    0.421430   -2.064710
C      0.095256   -0.903501    1.082760
C     -2.667838    1.047542   -1.475150
C     -3.669858    0.202359    2.486509
C     -2.360752   -0.360077    2.021083
C      0.894659   -0.088674   -1.354667
C      5.898676   -0.654421   -1.748944
C      3.636586   -1.204030   -2.008689
C      1.848601   -0.520226   -0.457032
C     -0.454459   -0.042590   -1.094109
C      5.584080    0.048880   -0.606766
C      4.259841    0.122177   -0.162690
C      3.251903   -0.506590   -0.856619
C     -0.825302   -0.468340    0.166453
C     -2.996568    0.708851   -0.076697
C     -4.753243    0.008472    1.474998
C     -2.253204   -0.445347    0.513268
N      4.911997   -1.265915   -2.424592
N     -4.425065    0.456222    0.143371
O     -5.856884   -0.491621    1.718643
H     -2.370046   -2.067936   -0.901279
H     -2.522304   -2.536213    0.810829
H     -3.925905   -1.735968   -0.074270
H     -5.320572    1.555791   -1.458400
H     -5.556655   -0.280775   -1.474901
H     -6.410504    0.752208   -0.315829
H      7.100126    1.882731    1.733973
H      4.725117    2.024071    2.542834
H      7.637594    0.619012   -0.278948
H      2.917392    0.911927    1.327110
H      2.167085   -1.299814    1.535386
H     -0.958465    1.113783   -2.778571
H     -1.766768   -0.476653   -2.669671
H     -0.207172   -1.243253    2.090530
H     -2.570574    2.163898   -1.599054
H     -3.552894    0.786415   -2.125187
H     -3.542880    1.317543    2.567514
H     -3.984640   -0.171616    3.465202
H     -2.208446   -1.376603    2.460542
H     -1.531276    0.276486    2.415841
H      1.186771    0.251548   -2.360721
H      6.934414   -0.694910   -2.071013
H      2.887316   -1.713330   -2.589659
H     -2.771012    1.603719    0.575165
