52

C     -2.961305    1.802716   -0.702954
C     -5.787812   -1.351438   -0.733311
C      7.554842    1.289677   -0.789351
C      6.224420    1.457367   -1.107853
C      7.926130    0.099038   -0.230956
C      5.287756    0.460326   -0.874370
C      6.996749   -0.890331    0.000806
C      0.831833    0.682477    1.329955
C     -1.658908   -1.403402   -1.371307
C     -0.513316    1.011492    1.271240
C     -3.044712   -0.826886   -1.504086
C     -4.730756    1.267827    1.869959
C     -3.261086    1.227581    1.658843
C      0.536288   -0.955915   -0.330135
C      4.764390   -1.855057   -0.018134
C      5.651254   -0.727674   -0.318390
C     -0.833382   -0.630311   -0.398933
C      1.375982   -0.302040    0.533861
C     -1.360516    0.353545    0.401170
C     -3.527882   -0.558198   -0.099421
C     -5.523086    0.465837    0.901445
C      2.796104   -0.620600    0.623624
C     -2.814187    0.708442    0.334557
N     -4.935452   -0.478219    0.025240
O     -6.772142    0.672823    0.899104
O      3.533162    0.016144    1.442771
O      3.401024   -1.590794   -0.141933
H     -3.898249    1.750970   -1.262329
H     -2.952826    2.770840   -0.164413
H     -2.053111    1.843650   -1.368919
H     -6.653652   -1.713601   -0.104664
H     -6.292233   -0.801427   -1.580153
H     -5.287942   -2.272404   -1.085624
H      8.297550    2.069936   -0.970244
H      5.918702    2.383060   -1.545199
H      8.982593   -0.022156    0.016978
H      4.235522    0.605522   -1.134240
H      7.348494   -1.809606    0.444147
H      1.482745    1.204593    2.014404
H     -1.750019   -2.429302   -0.955336
H     -1.145501   -1.468568   -2.371281
H     -0.944075    1.783117    1.894176
H     -3.719575   -1.442114   -2.091641
H     -2.932147    0.139878   -2.055406
H     -4.928298    0.827073    2.892116
H     -5.133927    2.303569    1.827747
H     -2.710503    0.701592    2.473625
H     -2.895315    2.295540    1.719123
H      0.925541   -1.750139   -0.986233
H      5.051329   -2.696840   -0.702924
H      5.038025   -2.215819    1.015927
H     -3.138517   -1.381791    0.544829
