28

C     -1.453157    2.668435   -0.407957
C     -0.297522    2.024052   -0.006638
C     -2.612916    1.963633   -0.650794
C     -1.688273   -1.492692    0.018043
C     -3.179347   -1.592511   -0.258921
C      2.222851    0.758841    0.821970
C      3.041659   -1.459491   -0.076913
C      2.126797   -0.283932   -0.294182
C     -0.236826    0.657112    0.172251
C     -1.409939   -0.036844   -0.075684
C      1.003873   -0.022335    0.603280
C     -2.567768    0.596497   -0.476339
O      4.391664   -1.046412   -0.015873
O     -3.596398   -0.320934   -0.657209
H     -1.499346    3.744850   -0.548134
H      0.571249    2.636107    0.165467
H     -3.506583    2.485006   -0.964023
H     -1.135034   -2.030806   -0.768691
H     -1.514869   -1.900021    1.032438
H     -3.393298   -2.299803   -1.095203
H     -3.733653   -1.962091    0.637927
H      2.394730    1.767209    0.427392
H      2.852774    0.532924    1.707772
H      2.844796   -2.006188    0.862376
H      2.995397   -2.187810   -0.912535
H      2.032670    0.048829   -1.332198
H      0.804715   -0.831026    1.367594
H      4.541754   -0.410599    0.724786
