51

C     -3.788865   -1.665606   -0.439375
C     -5.828063    1.215814    0.755558
C     -2.027607    1.806811   -1.108297
C      7.985171    0.899223   -0.079997
C      0.353854   -1.788888   -1.466702
C     -0.796794   -1.772569   -0.710222
C      7.594014    0.526582   -1.374034
C     -3.441897    1.370688   -0.780439
C     -3.399905   -0.991980    2.724640
C     -2.498538   -1.395723    1.604312
C     -0.063687    0.502314   -1.966623
C      5.688623    0.748053    0.624906
C     -1.225288    0.537068   -1.209140
C      6.991282    0.991782    0.869076
C      0.720364   -0.622644   -2.104630
C     -1.591265   -0.627332   -0.572180
C      5.237911    0.368923   -0.661318
C      6.280997    0.283313   -1.610362
C     -3.361375    0.609048    0.516195
C     -4.697846   -0.445433    2.251051
C      3.627918   -0.233458   -2.190636
C     -2.811253   -0.761783    0.281516
N      4.048376    0.111050   -1.028182
N     -4.649142    0.474215    1.165215
N      7.381651    1.375912    2.210377
O     -5.779416   -0.774831    2.777698
O      8.684622    1.629913    2.496310
O      6.535875    1.478350    3.114402
S      2.210019   -0.652021   -3.081168
S      5.299190   -0.210353   -3.057901
H     -4.821581   -1.535818   -0.115923
H     -3.758484   -1.509448   -1.534016
H     -3.495167   -2.714209   -0.175250
H     -5.587480    2.285206    0.707739
H     -6.225321    0.868139   -0.226072
H     -6.621075    1.035636    1.496509
H     -1.965991    2.401059   -2.032145
H     -1.660302    2.369656   -0.211337
H      9.025269    1.089037    0.095435
H      0.950802   -2.685080   -1.558325
H     -1.071935   -2.699425   -0.213922
H      8.321778    0.429998   -2.186417
H     -4.152160    2.208606   -0.751631
H     -3.740395    0.636840   -1.569652
H     -2.909671   -0.310063    3.456535
H     -3.638091   -1.921624    3.309410
H     -2.400817   -2.513261    1.497749
H     -1.458992   -1.053652    1.881536
H      0.222482    1.416316   -2.465871
H      4.970242    0.849929    1.453473
H     -2.662036    1.142124    1.192124
