36

C     -1.746990    2.128427    1.439450
C     -0.119131    2.600769   -1.529371
C      3.575305   -0.128647   -1.145041
C      2.216362   -0.047365   -1.137136
C      3.598947   -1.080276    1.064188
C     -0.489146   -1.843401    0.052055
C     -3.938155   -1.999382    0.843848
C     -2.759736   -1.960678   -0.941643
C     -0.535710    1.595039    0.704202
C     -0.785864    1.491389   -0.781105
C      4.265602   -0.637935   -0.061659
C      1.521574   -0.485829   -0.017706
C      2.215038   -0.987711    1.051088
C      0.037843   -0.450804    0.020821
Cl     6.012021   -0.741869   -0.075043
Cl     1.425958   -1.525868    2.537594
N     -4.031622   -2.016725   -0.496785
N     -2.645002   -1.934724    1.188269
N     -1.926183   -1.911162    0.093942
O     -0.358605    0.277001    1.093375
O     -0.407843    0.229221   -1.130956
H     -2.387082    1.286009    1.800297
H     -2.353456    2.765366    0.765586
H     -1.395198    2.661984    2.341504
H     -0.019711    2.409483   -2.597862
H      0.892090    2.845327   -1.139048
H     -0.728779    3.525291   -1.367034
H      4.129594    0.204145   -1.998549
H      1.637830    0.339262   -1.953475
H      4.120130   -1.475101    1.905884
H     -0.196583   -2.412306   -0.896040
H     -0.044591   -2.457879    0.852625
H     -4.747277   -2.030814    1.565989
H     -2.532473   -1.960241   -2.014810
H      0.384973    2.148402    0.936822
H     -1.884130    1.581600   -0.974275
