39

C     -3.221154   -0.491343    1.551782
C      2.184971    0.510088    0.548639
C      2.123802   -1.139617   -1.119614
C     -1.101349    0.783151    1.179448
C     -3.812614   -2.336648    0.120923
C     -2.057341   -0.313346    0.815975
C      1.494883   -0.102286   -0.461263
C     -4.078768   -1.503954    1.187461
C      3.475660    0.081912    0.879864
C      3.387123   -1.566907   -0.803326
C     -2.654899   -2.127098   -0.577457
C     -0.535166    1.343559   -0.137481
C      4.077628   -0.956806    0.204185
C     -1.752319   -1.115266   -0.249282
C      0.152505    0.260029   -0.898959
O     -5.255316   -1.676409    1.939029
O      4.207158    0.677754    1.897243
O      3.994186   -2.614520   -1.484622
O     -2.304105   -2.930160   -1.680333
O      5.368355   -1.408144    0.512515
O     -1.997236    3.366895   -1.394959
O     -0.920225    4.772979    0.542151
O      0.263701    4.572629   -1.555271
O     -0.603055   -0.926542   -0.961145
O      0.186326    2.492966    0.067733
S     -0.597542    3.815824   -0.577423
H     -3.412461    0.173430    2.386520
H      1.799178    1.323437    1.136423
H      1.618121   -1.659828   -1.930078
H     -0.296115    0.316274    1.775553
H     -1.659498    1.532572    1.733570
H     -4.495212   -3.143048   -0.169620
H     -1.472900    1.643517   -0.698927
H      0.230845    0.616960   -1.972133
H      3.821586    1.452734    2.438505
H      3.497206   -3.078234   -2.234105
H     -2.888177   -3.680338   -1.990826
H      5.932314   -1.011762    1.234541
H     -2.700096    4.045546   -1.255234
