49

C     -5.706813   -0.284622   -0.031732
C     -4.226496    1.505703    0.634550
C      4.925870    2.989206    0.075533
C      1.585008   -2.474473   -0.256188
C      0.752959   -2.234532    0.997175
C     -3.373365   -0.530805   -0.598914
C      3.897911   -1.628190   -0.626901
C      3.075481    0.899779    0.082424
C      0.143823    0.967867   -0.628004
C     -1.346278   -1.067075    0.797930
C     -4.266648    0.017037    0.439965
C      2.593947   -1.381960   -0.270870
C     -1.919195   -0.412157   -0.437068
C      2.154736   -0.127486    0.088377
C      0.744028    0.136429    0.471756
C     -1.370152    0.963074   -0.600766
C      4.800887   -0.608274   -0.630212
C      4.389080    0.661925   -0.274131
N      0.057706   -1.023588    0.835705
O     -1.778303    1.448442   -1.849530
O      6.140026   -0.815055   -0.986424
O      5.330820    1.701847   -0.282431
H     -6.358914   -0.045404    0.829083
H     -5.815607   -1.319037   -0.356355
H     -5.936007    0.456189   -0.842257
H     -3.636009    1.810537    1.538928
H     -3.945831    2.047973   -0.280814
H     -5.260829    1.910771    0.877788
H      4.706525    3.064007    1.141671
H      5.762175    3.690500   -0.147721
H      4.020370    3.297083   -0.494045
H      2.053888   -3.474089   -0.206118
H      1.005276   -2.406018   -1.175802
H      0.068380   -3.049731    1.208710
H      1.499230   -2.110411    1.829175
H     -3.611919   -1.633822   -0.697768
H     -3.648307   -0.101798   -1.593718
H      4.197104   -2.636471   -0.903069
H      2.787835    1.911262    0.356538
H      0.466517    2.017161   -0.470210
H      0.526974    0.647679   -1.617743
H     -1.757100   -0.591420    1.712955
H     -1.690198   -2.120957    0.809314
H     -4.188909   -0.452579    1.427714
H     -1.468688   -1.012667   -1.297453
H      0.817572    0.795838    1.389232
H     -1.668666    1.608826    0.232569
H     -1.997124    0.711073   -2.474017
H      6.467227   -1.717584   -1.247550
