142

C     -4.998066    1.652383   -1.996235
C     -3.508286    2.457894   -0.297510
C     -1.973049    0.200497   -0.438263
C      2.431896   -2.599789   -2.222773
C      1.379987    1.306570    0.026628
C      0.108882    0.901105    1.960320
C      1.759064    2.554451    0.502456
C      0.478684    2.159944    2.462610
C      1.361312   -1.913469   -1.636244
C     -0.783057   -0.586748   -0.964769
C     -2.936262    0.523577   -1.573798
C      3.497543   -2.550018   -0.100124
C      4.651300   -3.615873   -1.942084
C      2.459457   -1.478343    1.908993
C      3.503194   -2.913777   -1.432680
C      2.440309   -1.866548    0.498452
C      0.559414    0.471820    0.740400
C      1.297146    2.975237    1.735301
C      1.359896   -1.550489   -0.299307
C      0.148998   -0.841635    0.207835
F      1.668889    4.187726    2.191923
N      5.568854   -4.200731   -2.354843
N     -4.032454    1.285785   -0.975080
O      3.681705   -1.969489    2.447709
O     -0.451931   -1.564033    1.228049
C      3.312325    2.422254   -2.940416
C      3.370748    3.399558   -0.737164
C      1.540907    0.909169   -0.946397
C     -0.096239   -3.955149    1.176999
C     -0.741906    0.675850    1.877569
C     -1.473954    1.696892   -0.111428
C     -1.205889    1.758483    2.615068
C     -1.941043    2.780301    0.600694
C      0.226329   -2.725355    0.654212
C      1.181112   -0.437048   -0.301507
C      3.023079    1.034872   -0.981242
C     -2.367421   -3.454373    0.960614
C     -1.731908   -5.633861    1.889586
C     -3.172350   -1.293681    0.049554
C     -1.401504   -4.351702    1.343757
C     -2.069277   -2.197920    0.426485
C     -0.858501    0.609138    0.507836
C     -1.811542    2.819163    1.959935
C     -0.754888   -1.826447    0.270248
C     -0.351153   -0.533814   -0.287689
F     -2.269815    3.884067    2.661421
N     -2.020144   -6.677443    2.327187
N      3.515581    2.235047   -1.546439
O     -4.400843   -1.950750    0.311089
O     -0.779142   -0.351649   -1.602021
C     -8.084704    1.221784   -0.880115
C      8.279717   -1.319501   -0.185960
C     -5.876991    1.246218    0.242835
C     -6.182321   -0.125464   -1.709058
C      6.389136   -0.160140   -1.335473
C      5.955635   -1.144072    0.755656
C     -4.563045    0.849767    0.371546
C     -4.861755   -0.508552   -1.559530
C      5.071742    0.258300   -1.402702
C      4.630341   -0.721593    0.685147
C     -6.677511    0.768114   -0.780470
C      6.856530   -0.871422   -0.251199
C     -4.042625   -0.051741   -0.554981
C      4.164300   -0.009991   -0.400469
C     -0.459685   -0.568118    0.537276
C      0.502816    0.605710    0.443853
C     -0.196222   -1.356559    1.772271
C      0.261275    1.496503    1.609745
C     -2.655471   -0.505393   -0.465221
C      2.779316    0.441977   -0.493819
O      0.933994   -1.864523    1.981290
O     -1.240040   -1.506350    2.675009
O      1.121415    1.811705    2.447402
O     -1.047397    1.997957    1.738849
O     -2.242445   -1.318759   -1.329029
O      2.425947    1.086604   -1.514810
O     -1.786086   -0.092825    0.505982
O      1.836158    0.204708    0.469440
H     -5.152092    0.805133   -2.682788
H     -5.934144    2.007138   -1.540361
H     -4.554198    2.532546   -2.529795
H     -3.370681    2.274460    0.783941
H     -4.245185    3.270900   -0.428003
H     -2.547362    2.733884   -0.783916
H     -1.651431    1.117654    0.046164
H     -2.551020   -0.469265    0.238466
H      2.431729   -2.879523   -3.256941
H      1.778962    1.029658   -0.959791
H     -0.535608    0.334799    2.608368
H      2.404541    3.217617   -0.049873
H      0.124898    2.503630    3.423127
H      0.558687   -1.711258   -2.331283
H     -0.275794   -0.028256   -1.771662
H     -1.195748   -1.514958   -1.400111
H     -3.302694   -0.375428   -2.072043
H     -2.431294    1.169699   -2.307398
H      4.338171   -2.790769    0.541848
H      1.653850   -1.882206    2.534224
H      2.602726   -0.359238    2.035029
H      3.464101   -2.823283    2.892982
H     -1.283840   -1.188978    1.560181
H      3.239453    3.487664   -3.246888
H      4.212074    2.019043   -3.472311
H      2.422873    1.885863   -3.344905
H      2.941470    3.135166    0.241436
H      2.679842    4.107443   -1.278830
H      4.350521    3.911601   -0.642788
H      1.037358    0.924855   -1.913496
H      1.131933    1.670444   -0.231484
H      0.665010   -4.667633    1.480538
H     -0.277379   -0.130581    2.417566
H     -1.596845    1.706376   -1.193282
H     -1.086169    1.753951    3.688356
H     -2.417613    3.609834    0.058556
H      1.284993   -2.518790    0.566382
H      1.632868   -1.211190   -0.952348
H      1.616682   -0.527542    0.697641
H      3.396153    0.950999    0.064288
H      3.429335    0.137417   -1.504835
H     -3.418707   -3.724145    1.074792
H     -3.197141   -1.050341   -1.029385
H     -3.225922   -0.396511    0.715234
H     -4.512118   -2.712667   -0.322374
H     -1.031235   -1.196856   -2.049812
H     -8.114196    2.009685   -1.660559
H     -8.447989    1.612203    0.081983
H     -8.724063    0.396011   -1.230338
H      8.360786   -2.374579   -0.474433
H      8.659735   -1.118894    0.832561
H      8.888529   -0.692694   -0.878453
H     -6.280432    1.955907    0.975308
H     -6.800949   -0.512900   -2.523479
H      7.100677    0.060662   -2.140966
H      6.285686   -1.704426    1.630752
H     -3.915258    1.206402    1.159890
H     -4.458107   -1.215407   -2.288138
H      4.725364    0.822050   -2.275281
H      3.914801   -0.933608    1.476301
H     -0.326421   -1.265272   -0.312135
H      0.216823    1.169318   -0.461286
H     -1.113754   -2.054601    3.536923
H     -1.263256    2.775797    2.338737
