39

C     -4.230252   -0.154389    0.232240
C      1.887191   -0.564229   -0.824990
C      2.219213   -0.007804    1.425415
C     -2.184795    1.152443    0.509957
C     -4.236034   -2.512378   -0.276281
C     -2.841704   -0.145654    0.231299
C      1.327714   -0.242810    0.393538
C     -4.918860   -1.344340   -0.022987
C      3.272148   -0.647644   -1.006863
C      3.570811   -0.075789    1.301351
C     -2.862784   -2.475979   -0.271227
C     -0.721828    1.154131    0.147037
C      4.115960   -0.403573    0.055933
C     -2.156970   -1.302925   -0.019678
C     -0.118177   -0.153030    0.594259
O     -6.318028   -1.347699   -0.020861
O      3.810848   -0.972313   -2.240585
O      4.404171    0.175507    2.391780
O     -2.181626   -3.655039   -0.526891
O      5.498807   -0.461634   -0.025253
O     -0.202181    4.006493   -0.243875
O      0.146030    3.433238   -2.729383
O      1.789586    2.668275   -1.135818
O     -0.770059   -1.254188   -0.011993
O     -0.536921    1.417323   -1.181374
S      0.328404    2.843267   -1.351805
H     -4.833836    0.719049    0.421832
H      1.267282   -0.766225   -1.696072
H      1.790004    0.248442    2.398692
H     -2.314110    1.394868    1.585017
H     -2.713182    1.918898   -0.093252
H     -4.805226   -3.401914   -0.466963
H     -0.246278    1.951069    0.749976
H     -0.307089   -0.213170    1.706073
H      4.798860   -1.041830   -2.410166
H      3.991057    0.409478    3.278189
H     -1.175429   -3.737974   -0.546817
H      6.028724   -0.681087   -0.841166
H      0.428562    4.071136    0.521712
