142

C      1.890595   -4.141303    1.463268
C     -0.128505   -3.101714    1.969256
C      1.283559   -0.440262    1.569289
C     -1.724866    2.480865    2.168394
C      0.729744    2.598548   -2.356910
C      0.901113    0.306230   -2.664398
C      0.890738    2.757284   -3.750514
C      1.059726    0.423452   -4.042062
C     -0.619489    2.234824    1.449406
C      1.348435   -0.213362    0.072805
C      1.870973   -1.787170    1.885060
C     -2.933715    0.991450    0.848661
C     -4.101871    2.134909    2.669654
C     -1.849012   -0.269481   -1.023278
C     -2.916754    1.873504    1.897470
C     -1.772335    0.713336    0.074824
C      0.737097    1.344252   -1.793376
C      1.050366    1.707496   -4.559183
C     -0.584356    1.326678    0.352275
C      0.647276    1.092376   -0.342186
F      1.213614    1.840946   -5.925867
N     -5.095975    2.372269    3.307109
N      1.149192   -2.892582    1.275189
O     -3.202204   -0.727005   -1.052858
O      1.596472    2.057823    0.179378
C      2.081546   -0.481596   -4.287067
C      2.840802   -2.449311   -3.245512
C      0.328220    0.036059   -2.063633
C     -1.315875   -2.965977    1.244203
C      0.394282    2.817590    1.232704
C      0.338077    1.157543    2.834462
C      0.472754    3.797973    2.132856
C      0.414510    2.077374    3.725085
C     -0.436010   -1.899905    0.922314
C      0.291697    0.953141   -0.923603
C      1.587984   -0.854272   -2.074448
C     -2.896570   -1.225217    1.292052
C     -3.532949   -3.527012    1.922231
C     -2.492821    1.202637    0.871949
C     -2.620404   -2.475903    1.424394
C     -2.073180   -0.143341    0.982912
C      0.326151    1.479433    1.422624
C      0.496135    3.488533    3.564937
C     -0.685925   -0.633033    0.793183
C      0.280329    0.415649    0.446196
F      0.530871    4.354618    4.504914
N     -4.297728   -4.417233    2.321088
N      1.725823   -1.536344   -3.332194
O     -3.903971    1.208718    1.208659
O      1.571877   -0.223479    0.591965
C      8.204374   -0.905101    0.383436
C     -8.292365    0.361629    0.325048
C      6.009652    0.012832   -0.421374
C      6.052995   -1.236579    1.577151
C     -5.922711    1.000051   -0.142890
C     -6.388354   -1.274636    0.282729
C      4.639544    0.194242   -0.293196
C      4.682295   -1.055263    1.705662
C     -4.584536    0.676458   -0.300929
C     -5.047491   -1.582286    0.121798
C      6.724624   -0.696964    0.502230
C     -6.842257    0.016447    0.152935
C      3.956466   -0.340722    0.777748
C     -4.120948   -0.611717   -0.173093
C      0.362848    0.678984    0.237963
C     -0.447743   -0.043974   -0.832961
C     -0.016592    2.099250    0.340592
C      0.002741    0.455985   -2.160329
C      2.522085   -0.170692    0.943937
C     -2.710547   -0.890359   -0.349348
O     -1.198401    2.463695    0.511153
O      0.966694    3.060545    0.245124
O     -0.833267    0.940809   -2.956354
O      1.324530    0.412245   -2.569451
O      1.942547   -0.675420    1.934572
O     -2.265442   -2.067428   -0.235845
O      1.734185    0.534275    0.050306
O     -1.820574    0.102887   -0.642104
H      1.522361   -4.656533    2.364654
H      2.975907   -3.959954    1.514338
H      1.654889   -4.803050    0.592286
H     -0.509617   -4.132635    1.742643
H     -0.831395   -2.352346    1.588002
H      0.025351   -3.076837    3.057190
H      1.897126    0.369513    2.056594
H      0.284094   -0.358282    2.004185
H     -1.661162    3.173458    2.994829
H      0.602397    3.481169   -1.755341
H      0.888527   -0.717978   -2.324500
H      0.872411    3.771298   -4.146265
H      1.183266   -0.448750   -4.654260
H      0.324117    2.737497    1.699866
H      1.017698   -1.011942   -0.550685
H      2.468525   -0.112989   -0.151503
H      1.869711   -1.930163    2.974730
H      2.922817   -1.841791    1.515456
H     -3.851120    0.460889    0.560367
H     -1.307630   -1.211270   -0.798340
H     -1.713053    0.124253   -2.032767
H     -3.395454   -1.147634   -1.924485
H      1.320415    2.960714    0.001597
H      1.459388   -0.672478   -5.182766
H      1.951508    0.537718   -3.854620
H      3.141731   -0.642273   -4.592160
H      3.689966   -1.990949   -2.692581
H      3.242849   -2.677857   -4.269945
H      2.558630   -3.436344   -2.830090
H     -0.529265   -0.714821   -2.020210
H      0.244208    0.488601   -3.046022
H     -1.045082   -3.966073    1.326555
H      0.410916    3.168089    0.137975
H      0.236442    0.091469    3.009237
H      0.524641    4.840153    1.934799
H      0.457326    1.807742    4.832907
H      0.608843   -2.316181    0.788065
H      1.249288    1.584584   -0.990127
H     -0.478610    1.745748   -1.121648
H      2.459884   -0.397278   -1.663785
H      1.324687   -1.699477   -1.332105
H     -4.021134   -0.956741    1.392399
H     -2.128823    1.921007    1.639703
H     -2.571332    1.647381   -0.158082
H     -4.428949    0.915579    0.427885
H      2.217261    0.565754    0.752342
H      8.655938    0.005601   -0.089638
H      8.591557   -1.064538    1.406067
H      8.417770   -1.818724   -0.209558
H     -8.411033    0.604866    1.408469
H     -8.463493    1.273714   -0.258105
H     -8.950812   -0.480699    0.044586
H      6.558071    0.430546   -1.262222
H      6.590247   -1.807873    2.332254
H     -6.301880    2.011477   -0.240901
H     -7.132042   -2.035639    0.516629
H      4.120922    0.769008   -1.059609
H      4.221075   -1.506496    2.573731
H     -3.897480    1.463467   -0.530049
H     -4.709867   -2.619346    0.230255
H      0.090386    0.138266    1.192514
H     -0.212091   -1.124871   -0.701783
H      0.709317    4.028320    0.374969
H      1.489064    0.273727   -3.566625
