41

C     -2.583862   -1.376673    0.952305
C     -2.747324    0.998773    0.992806
C     -1.215752   -1.280061    1.234020
C     -1.392347    1.057175    1.270662
C     -4.786906   -0.297622    0.537009
C      4.283722    0.064452   -1.265151
C      6.609244    0.041631    0.159860
C      3.676210   -0.043355    2.225544
C     -3.335284   -0.240924    0.834508
C     -0.604024   -0.054266    1.396728
C      4.197813    0.023524    0.100502
C      3.136400   -0.010840    0.970466
C      6.668062    0.082631   -1.215743
C     -4.951332   -0.271475   -0.966431
C      5.386400    0.012211    0.816948
C      5.487766    0.094198   -1.938360
C     -6.391714   -0.325737   -1.352375
C      1.703174   -0.013697    0.665180
Br     8.334009    0.124036   -2.156552
N     -4.303754    0.884891   -1.501651
N      5.022568   -0.028950    2.112855
O      5.562970    0.135617   -3.323440
O     -7.131472   -1.269734   -0.976955
O     -6.972112    0.662916   -2.140629
O      1.252442    0.016766   -0.498607
O      0.755224   -0.051146    1.673734
H     -3.076901   -2.330259    0.822233
H     -3.341388    1.901856    0.899842
H     -0.677334   -2.209996    1.314834
H     -0.946965    2.012556    1.391081
H     -5.338307    0.530783    1.021311
H     -5.194686   -1.282033    0.876057
H      3.339994    0.072855   -1.814388
H      7.518663    0.032711    0.716865
H      3.081143   -0.075014    3.133909
H     -4.469281   -1.190257   -1.373155
H     -4.235678    0.891100   -2.527065
H     -4.700615    1.752417   -1.093636
H      5.652678   -0.048055    2.938045
H      4.691999    0.143501   -3.834059
H     -7.963442    0.863495   -2.139938
