50

C      1.115293    3.021516    0.261316
C      0.434464    1.879709   -1.772676
C     -4.472426   -1.129985   -0.951292
C      4.745553   -2.526367    1.030108
C      3.492441   -2.053714    1.352956
C     -4.106980    0.340022   -0.808242
C     -3.133259   -1.874360   -0.927256
C      4.916068   -0.796174   -0.625965
C      0.602027   -0.500172    1.682479
C     -1.887882    1.461483   -0.433935
C     -0.968319   -1.186283   -0.116344
C      5.461330   -1.892352    0.033570
C      2.971789   -0.961626    0.682418
C      1.773430   -0.287055    0.791226
C      3.658983   -0.306026   -0.316459
C     -0.626979    1.248722    0.406907
C      1.753220    0.729745   -0.110230
C     -2.899298    0.002745    1.312717
C      0.612370    1.672416   -0.276099
C     -0.631606   -0.149215    0.938549
C     -2.782738    0.275764   -0.148213
Br     7.203035   -2.481250   -0.476324
N      2.912288    0.709775   -0.783631
N     -1.745609   -0.210376    1.903788
N     -2.147579   -0.853839   -0.843591
O     -4.080835   -0.029765    2.002050
H      0.935121    3.081067    1.362744
H      0.553147    3.801352   -0.282291
H      2.182203    3.106070   -0.004641
H     -0.203294    2.765270   -1.992870
H      0.153512    0.973818   -2.306705
H      1.451869    2.170044   -2.170009
H     -4.986949   -1.260362   -1.922355
H     -5.136190   -1.456449   -0.135064
H      5.194777   -3.374658    1.524260
H      2.904918   -2.522223    2.124307
H     -4.092135    0.872674   -1.763993
H     -4.860275    0.794841   -0.133745
H     -3.038192   -2.396581   -1.904431
H     -3.099939   -2.623634   -0.113590
H      5.485015   -0.310584   -1.401590
H      0.676815    0.130507    2.600427
H      0.581260   -1.558813    1.974952
H     -1.669538    1.433287   -1.518377
H     -2.392227    2.412177   -0.188716
H     -1.106704   -2.155807    0.423058
H     -0.062418   -1.309320   -0.736108
H     -0.772895    1.925882    1.300871
H      3.222152    1.368246   -1.559793
H     -4.088816    0.029857    3.015829
