42

C     -1.149399    2.134362    1.729029
C     -2.799895    1.040137   -1.023702
C     -1.988093    2.199881   -0.481197
C     -3.030533   -1.329581   -0.218451
C      1.824614    0.801364   -0.745344
C      3.215538   -1.042150    0.797963
C      5.313233    1.719776   -0.384423
C     -2.580410    0.038115    0.092930
C      1.161608   -0.324332   -0.264752
C      1.879148   -1.220418    0.498011
C     -2.054465   -2.238206   -0.841219
C      3.157877    0.989968   -0.452656
C      3.855450    0.078507    0.313413
C     -0.258861   -0.495178   -0.592680
C     -1.144687    0.216639    0.400648
C     -0.614311   -1.955906   -0.542531
C      1.169401   -2.399014    0.994179
N     -0.959769    1.657603    0.351519
O     -2.303271   -3.564782   -0.417954
O      1.785100   -3.244327    1.695377
O      4.013106    2.034117   -0.825069
O      5.154088    0.546703    0.425923
O     -0.171023   -2.522136    0.657376
H     -2.255009    2.171158    1.912995
H     -0.739574    3.132764    1.885650
H     -0.751142    1.383190    2.463387
H     -3.849978    1.291412   -1.185970
H     -2.291635    0.721864   -1.963365
H     -1.610210    2.865370   -1.279983
H     -2.706044    2.820387    0.130969
H     -3.942986   -1.260141   -0.879007
H     -3.414749   -1.801144    0.729833
H      1.311866    1.539110   -1.349566
H      3.708382   -1.784213    1.398725
H      5.692210    2.541177    0.277000
H      6.017162    1.529218   -1.218150
H     -3.171169    0.434546    0.969240
H     -2.199722   -2.244200   -1.941954
H     -0.410440   -0.148680   -1.632045
H     -0.923299   -0.201998    1.393789
H     -0.024871   -2.443493   -1.374549
H     -1.913239   -3.667467    0.496608
