50

C      0.453898    1.977716    1.458897
C      0.499392    2.732283   -0.853482
C     -4.955865   -0.479477    0.499320
C      5.278628   -2.144684   -0.096877
C      3.928104   -2.059978    0.229695
C     -4.225210    0.379832   -0.535478
C     -3.886018   -0.897858    1.500690
C      5.285424    0.156631   -0.775684
C      0.792970   -1.240925    0.804695
C     -1.831813    1.153340   -0.597039
C     -1.495719   -0.589340    1.595212
C      5.954731   -1.037263   -0.598641
C      3.252989   -0.874148    0.056536
C      1.939454   -0.485133    0.283965
C      3.931482    0.211061   -0.439315
C     -0.459657    0.547218   -0.402007
C      1.891702    0.837495   -0.092712
C     -2.375112   -1.253745   -0.879058
C      0.569598    1.519716    0.050705
C     -0.536051   -0.716016    0.404993
C     -2.810305    0.027460   -0.285444
Br     7.804655   -1.247786   -1.018155
N      3.102688    1.251933   -0.529821
N     -1.219511   -1.694175   -0.470540
N     -2.763897   -0.096585    1.179104
O     -3.092904   -1.988114   -1.808303
H     -0.566408    2.281035    1.768013
H      0.936003    1.286408    2.202533
H      1.067345    2.925047    1.546000
H      1.423104    2.786655   -1.492107
H      0.492778    3.672989   -0.265596
H     -0.377662    2.718559   -1.523154
H     -5.784070    0.056713    0.961757
H     -5.392448   -1.390834    0.017648
H      5.785382   -3.077732    0.045723
H      3.380256   -2.897074    0.618537
H     -4.389613    1.439175   -0.294429
H     -4.585021    0.120718   -1.566033
H     -3.721197   -1.979200    1.492820
H     -4.264301   -0.566658    2.511447
H      5.815371    1.005088   -1.163215
H      0.901939   -2.304444    0.445471
H      0.856635   -1.335752    1.928521
H     -2.029298    1.959736    0.119846
H     -1.997924    1.486268   -1.653681
H     -1.553370   -1.637719    2.011184
H     -1.096373    0.027800    2.395437
H     -0.139749    0.224006   -1.440686
H      3.280941    2.224713   -0.862373
H     -3.075974   -3.014952   -1.744858
