21

C     -0.235180    0.195082    1.445433
C      1.016418    0.472757    1.204699
C      0.243334   -0.604678   -0.720258
C     -2.119706   -0.249617   -0.000755
C     -0.741143   -0.752166    0.424088
C      1.500983   -0.236191    0.018702
N      2.400305    0.558583   -0.793224
O     -1.923668    1.033878   -0.519354
Cl     0.687396    0.000000    0.000000
H     -0.864903    0.583534    2.274170
H      1.603544    1.156847    1.832970
H     -0.047636    0.209586   -1.415234
H      0.370949   -1.556978   -1.280005
H     -2.604532   -0.921280   -0.724012
H     -2.702751   -0.150238    0.937165
H     -0.822023   -1.791013    0.788493
H      2.019549   -1.176596    0.304504
H      3.394875    0.310145   -0.614794
H      2.201610    1.578900   -0.739532
H     -2.690024    1.339442   -1.074689
H     -0.687396    0.000000    0.000000
