52

C     -3.166589   -0.058921    1.530262
C     -6.068359    0.098151   -1.148743
C      0.583742   -2.448138   -0.561012
C      7.041061    2.075830    0.083892
C     -1.684461    0.042801   -1.064758
C     -3.120984    0.050806   -0.850560
C     -0.710965    0.117880    0.014876
C     -6.094904   -0.014523    1.214437
C     -7.569320    0.013003    1.080524
C      2.403093   -1.305295   -1.714511
C      3.739076    0.683909    1.222872
C     -3.859098    0.010093    0.238338
C     -5.328237    0.028084    0.115890
C      0.930104   -1.222995   -1.355432
C      5.599443    1.982162    0.421800
C      3.308009   -1.048084   -0.531353
C      0.719413    0.049831   -0.601681
C      2.874629    0.308320    0.037431
N      5.105788    0.899007    0.863365
O     -8.249924   -0.030937    2.121797
O      4.784398    3.082650    0.255261
O      4.609325   -1.000458   -1.015887
O      1.567483    0.119108    0.478276
H     -3.921529    0.050260    2.360457
H     -2.755319   -1.096829    1.715070
H     -2.432788    0.724162    1.713440
H     -6.759084   -0.791479   -1.147325
H     -5.492460    0.019571   -2.062493
H     -6.664693    1.042426   -1.239310
H      0.546441   -2.168287    0.520246
H      1.379477   -3.233027   -0.671325
H     -0.364656   -2.915368   -0.862094
H      7.334041    3.067092   -0.274440
H      7.328893    1.347607   -0.703287
H      7.686662    1.847154    0.971007
H     -1.476944   -0.939718   -1.644077
H     -1.420465    0.795020   -1.909985
H     -3.732720    0.108329   -1.812914
H     -0.733022   -0.608451    0.816392
H     -0.720471    1.168206    0.441932
H     -5.664918   -0.072952    2.187906
H     -8.035332    0.068607    0.132159
H      2.602538   -0.521860   -2.481889
H      2.571205   -2.299467   -2.161129
H      3.346633    1.636229    1.635953
H      3.610614   -0.069585    2.027950
H      0.396013   -1.232219   -2.338544
H      3.159653   -1.845425    0.229376
H      0.849361    0.903035   -1.294794
H      2.931811    1.027406   -0.777402
H      3.768942    3.046107    0.222780
H      5.249391   -1.488828   -0.441250
