34

C     -1.382925    2.877925    0.617371
C      3.734690    0.048909    0.949225
C     -0.704434   -1.202700    1.005631
C     -3.378370    0.013498    0.582894
C      0.844905    0.964561    0.103678
C     -1.545611    1.724782    0.024296
C      2.827105   -0.619534   -0.014948
C     -2.833287    1.065768   -0.286037
C     -0.511205    0.835476   -0.460876
C      1.612220   -0.239877   -0.374425
C     -2.502633   -0.405430   -0.504063
C      3.165890   -1.858634   -0.739411
C     -0.351110   -1.378199   -1.392742
C     -1.023698   -0.572159   -0.298732
C      1.062616   -1.191750   -1.359802
O      4.227015   -2.514706   -0.661730
O      2.061086   -2.139708   -1.521901
O      0.325116   -0.715158   -2.410661
H     -0.415056    3.329428    0.827940
H     -2.285468    3.430040    0.924783
H      3.185802    0.819050    1.513458
H      4.492691    0.598329    0.334134
H      4.191792   -0.651904    1.653184
H      0.165878   -0.803497    1.536087
H     -1.539607   -1.221805    1.736194
H     -0.473372   -2.295374    0.829701
H     -3.099057    0.079082    1.648186
H     -4.466241   -0.235031    0.457980
H      1.395063    1.869171   -0.292716
H      0.897712    1.069025    1.204923
H     -3.537098    1.547697   -0.995138
H     -0.419715    1.023219   -1.573741
H     -2.918358   -0.927449   -1.368231
H     -0.802335   -2.323042   -1.694510
