39

C      4.876220    0.500241    0.485537
C      4.127415    1.139346   -0.483771
C      4.234839   -0.395752    1.320295
C     -2.762924    2.929904    1.240385
C     -2.324521    3.236798   -0.033905
C     -2.174669   -3.289680   -1.494417
C     -2.214459   -2.420382   -2.558544
C     -2.325497    1.755557    1.805802
C      2.779593    0.876362   -0.598188
C      2.896381   -0.666196    1.217364
C     -1.477622    2.397030   -0.718129
C     -1.505648   -2.994588   -0.307520
C     -1.559694   -1.200773   -2.439791
C     -1.012715   -0.367226    1.762224
C     -1.458301    0.886750    1.116212
C      2.154149   -0.019618    0.241372
C     -1.035212    1.209927   -0.147007
C     -0.872927   -1.792891   -0.218630
C     -0.905103   -0.911359   -1.279323
C     -0.066923   -1.135679    0.876679
C     -0.125445    0.310222   -0.883093
N      0.770844   -0.259461    0.087986
H      5.945591    0.709832    0.575212
H      4.589624    1.861370   -1.173367
H      4.812818   -0.899610    2.080691
H     -3.436499    3.597575    1.784896
H     -2.674347    4.168292   -0.476592
H     -2.687839   -4.230448   -1.604445
H     -2.726995   -2.632115   -3.483830
H     -2.648612    1.476138    2.811048
H      2.215290    1.406720   -1.382667
H      2.391262   -1.371137    1.874913
H     -1.132313    2.633910   -1.715815
H     -1.503503   -3.718222    0.508032
H     -1.577381   -0.505384   -3.258959
H     -0.541509   -0.135777    2.756116
H     -1.888632   -1.022768    2.028237
H      0.494724   -1.909005    1.433784
H      0.350541    0.782099   -1.748790
