41

C     -2.083907   -2.676235    0.895192
C     -1.944184   -1.233423    1.328543
C      4.497878   -1.190083    0.753588
C      3.475698   -2.116349    0.793025
C      4.240922    0.051061    0.238145
C     -2.174219    2.979060    1.581342
C     -1.203646    3.725060    0.923866
C      2.233280   -1.776277    0.318468
C      2.990489    0.366680   -0.229961
C     -2.326469    1.639573    1.297935
C     -0.424432    3.083011    0.003663
C     -0.934689   -0.810321   -2.214241
C     -0.520811    0.607502   -2.478430
C      1.938878   -0.520900   -0.212712
C     -1.688316   -0.415646    0.058440
C     -1.535913    1.018845    0.374004
C     -0.577910    1.747334   -0.277365
C     -0.555005   -0.980169   -0.735048
C      0.277841    1.074770   -1.275328
N      0.656860   -0.192751   -0.693208
H     -2.509728   -2.683641   -0.128344
H     -2.869568   -3.142138    1.546209
H     -1.122067   -3.227354    0.971349
H     -2.933683   -0.905085    1.695055
H     -1.132588   -1.091056    2.061651
H      5.494795   -1.440624    1.126399
H      3.689965   -3.107220    1.207136
H      5.021628    0.778184    0.200994
H     -2.796695    3.488015    2.315233
H     -1.096568    4.772426    1.156440
H      1.444842   -2.529646    0.362755
H      2.849419    1.352877   -0.620917
H     -3.113227    1.117290    1.856735
H      0.333828    3.690010   -0.502355
H     -0.405662   -1.544690   -2.845559
H     -2.024952   -0.978040   -2.270851
H     -1.409433    1.261862   -2.643296
H      0.167188    0.627999   -3.352753
H     -2.668983   -0.488179   -0.503280
H     -0.366054   -2.050393   -0.508839
H      1.105197    1.718661   -1.573680
