41

C     -1.133470   -2.995998    1.107705
C     -1.501259   -1.932995    0.097305
C      4.444582   -1.422737   -0.724383
C      3.594757   -2.068015    0.146445
C      4.084394   -0.175553   -1.186911
C     -3.432044    1.397823   -1.877197
C     -2.577840    2.446880   -2.137634
C      2.412858   -1.479581    0.544991
C      2.881737    0.411943   -0.775220
C     -3.060496    0.443292   -0.960591
C     -1.353272    2.507968   -1.457757
C     -0.506440    1.001364    2.286565
C     -0.003454    2.214265    1.546507
C      2.018141   -0.215121    0.094053
C     -1.481286   -0.555124    0.702973
C     -1.841540    0.491606   -0.274706
C     -1.011686    1.535305   -0.545640
C     -0.189462   -0.213535    1.401798
C      0.308377    1.650190    0.151476
N      0.805110    0.346888    0.524492
H     -0.142199   -3.415197    0.916800
H     -1.848114   -3.848261    1.072567
H     -1.174638   -2.609027    2.162073
H     -2.548381   -2.132482   -0.211189
H     -0.875015   -2.002064   -0.818796
H      5.380023   -1.846190   -1.062928
H      3.886313   -3.044937    0.503005
H      4.746641    0.343740   -1.874492
H     -4.374243    1.363648   -2.409672
H     -2.870388    3.197387   -2.858562
H      1.764609   -1.997789    1.223949
H      2.645293    1.391797   -1.167513
H     -3.735647   -0.370881   -0.765695
H     -0.678608    3.308027   -1.642640
H     -1.594824    1.114146    2.446653
H     -0.036569    0.872061    3.276236
H     -0.785880    2.979299    1.389062
H      0.916161    2.635365    2.016315
H     -2.279015   -0.546544    1.495414
H      0.139437   -1.062936    1.997245
H      1.007335    2.281976   -0.389224
