41

C     -3.309441    2.108524    0.640637
C     -2.072488    2.034617   -0.212106
C      4.803974   -0.578583    1.152537
C      4.216534   -1.545487    0.373328
C      4.152392    0.602861    1.349347
C     -2.772836   -2.140748    1.123459
C     -2.158453   -3.058658    0.285308
C      2.988983   -1.320889   -0.198031
C      2.924103    0.808523    0.768687
C     -2.424184   -0.809484    1.121031
C     -1.164053   -2.618544   -0.578598
C     -0.023816    1.510443   -2.021714
C     -0.419714    0.133005   -2.470113
C      2.285915   -0.119775   -0.020382
C     -1.052301    1.048222    0.241408
C     -1.458658   -0.352138    0.288447
C     -0.849836   -1.293892   -0.548690
C      0.230486    1.286517   -0.522525
C      0.223759   -0.780254   -1.432406
N      1.031451    0.090803   -0.611710
H     -3.861072    3.088192    0.444363
H     -4.065876    1.341458    0.426436
H     -3.106372    2.147971    1.721910
H     -1.631950    3.074679   -0.182950
H     -2.420631    1.875370   -1.273985
H      5.768688   -0.770490    1.594291
H      4.707932   -2.492212    0.198685
H      4.602522    1.362905    1.955442
H     -3.541814   -2.547787    1.774988
H     -2.421478   -4.111671    0.274205
H      2.560825   -2.099665   -0.800816
H      2.419020    1.772160    0.944764
H     -2.954572   -0.187508    1.818338
H     -0.664814   -3.313425   -1.246298
H     -0.720736    2.308746   -2.234992
H      0.998934    1.691255   -2.437786
H     -0.046024   -0.107157   -3.489734
H     -1.516895    0.063676   -2.474363
H     -0.797499    1.334966    1.311105
H      0.737018    2.153737   -0.084097
H      0.802977   -1.590267   -1.906687
