41

C     -3.282518   -1.679995    1.423457
C     -2.136062   -1.744304    0.491851
C      4.762017   -0.505143    1.520976
C      4.497206    0.617084    0.753584
C      3.821323   -1.503800    1.629116
C     -2.882190    2.593621    0.383283
C     -2.098927    3.334583   -0.471872
C      3.287322    0.701375    0.114511
C      2.615219   -1.400218    0.980934
C     -2.599660    1.292871    0.722726
C     -0.984691    2.742969   -1.007710
C     -0.571872   -1.049902   -1.858029
C      0.156933    0.101535   -2.524575
C      2.315448   -0.300314    0.209132
C     -1.120221   -0.678985    0.496300
C     -1.461968    0.692623    0.172197
C     -0.659355    1.429183   -0.692785
C      0.001354   -1.140537   -0.456470
C      0.580249    0.884559   -1.296830
N      1.076184   -0.182888   -0.462495
H     -3.623737   -2.757817    1.692531
H     -3.057848   -1.276983    2.429058
H     -4.193766   -1.263321    0.940990
H     -1.572755   -2.704390    0.765150
H     -2.491953   -2.005226   -0.556144
H      5.719613   -0.593464    2.039077
H      5.215748    1.424995    0.645358
H      4.012766   -2.398688    2.231425
H     -3.779126    3.046517    0.824802
H     -2.341874    4.366900   -0.728655
H      3.097341    1.582748   -0.479388
H      1.884730   -2.203467    1.081103
H     -3.203845    0.732437    1.399906
H     -0.317962    3.281582   -1.697204
H     -1.649603   -0.740563   -1.860534
H     -0.487732   -1.995378   -2.389817
H      0.982195   -0.205167   -3.161720
H     -0.519872    0.755311   -3.110828
H     -0.610773   -0.747177    1.515149
H      0.305886   -2.166902   -0.197854
H      1.316772    1.663733   -1.509706
