46

C      1.159392    1.094268    1.009380
C     -0.382488   -1.562313   -1.227817
C     -5.020187    2.757077    0.089624
C      4.260478   -1.077204   -0.093392
C      4.152954    1.269851   -0.302084
C     -3.098434   -1.922724    0.190643
C      5.544751   -1.012878    0.392975
C      5.435075    1.350340    0.182469
C     -4.410001   -2.032207   -0.186377
C      2.161263   -0.105007   -0.976637
C     -1.126159   -0.548020    0.870405
C     -3.319950    0.427629    0.347997
C      1.169738   -0.141049    0.141734
C     -0.242756   -0.355286   -0.343251
C      3.546346    0.048744   -0.446635
C     -2.549328   -0.705357    0.457798
C      6.141128    0.219934    0.533101
C     -5.179302   -0.910392   -0.296855
C     -4.624226    0.331718   -0.025721
O      7.452705    0.316944    1.027734
O     -6.517417   -1.011667   -0.680531
O     -5.431362    1.427094   -0.149271
H      0.516152    1.896037    0.593641
H      0.816236    0.833038    2.050232
H      2.164034    1.537419    1.163659
H     -1.443986   -1.600341   -1.594760
H     -0.219008   -2.492335   -0.656379
H      0.267172   -1.573008   -2.104461
H     -5.106556    2.942741    1.179515
H     -3.966426    2.944845   -0.205348
H     -5.671045    3.494639   -0.417869
H      3.794705   -2.072969   -0.200473
H      3.629653    2.184783   -0.574504
H     -2.457653   -2.799121    0.288073
H      6.116990   -1.901815    0.675083
H      5.943874    2.324058    0.307582
H     -4.812285   -3.015566   -0.390635
H      2.133536   -1.082469   -1.484954
H      1.935480    0.666467   -1.729751
H     -0.782878   -1.464062    1.396738
H     -1.071762    0.302368    1.583835
H     -2.880522    1.399367    0.561645
H      1.421451   -1.043620    0.770452
H     -0.572133    0.558584   -0.858298
H      8.217357    0.291193    0.370767
H     -7.094605   -0.189726   -0.765247
