46

C     -1.595917   -1.910930   -0.889323
C      0.476737   -1.633898    1.213081
C      5.346476    0.878174   -2.289406
C     -3.771112    1.346937   -0.506152
C     -4.343612   -0.830596    0.143880
C      2.681739    0.396231    2.028463
C     -5.031828    1.546505   -1.007186
C     -5.616000   -0.649128   -0.354067
C      4.020054    0.304911    2.344984
C     -2.003231   -0.016612    0.615618
C      0.896697    0.684513    0.365357
C      3.323940    0.681405   -0.271944
C     -1.068626   -0.564688   -0.440291
C      0.337276   -0.704901    0.056726
C     -3.380236    0.153183    0.087111
C      2.351488    0.586054    0.703381
C     -5.958916    0.547070   -0.932161
C      4.987913    0.400873    1.366323
C      4.669005    0.591354    0.033293
O     -7.261936    0.683973   -1.423174
O      6.358721    0.311504    1.659487
O      5.666872    0.683833   -0.927627
H     -2.564069   -1.821155   -1.398370
H     -0.845838   -2.489003   -1.455192
H     -1.791286   -2.502237    0.051426
H      1.555143   -1.806509    1.408457
H     -0.033066   -1.283479    2.131922
H      0.039383   -2.597993    0.946310
H      4.483424    0.226785   -2.601489
H      6.224804    0.710026   -2.932859
H      5.024050    1.934041   -2.479234
H     -3.051555    2.163773   -0.580306
H     -4.082103   -1.772311    0.596154
H      1.902148    0.321573    2.797001
H     -5.305000    2.481653   -1.460849
H     -6.354735   -1.437198   -0.297505
H      4.334299    0.155229    3.375103
H     -2.015367   -0.749235    1.472929
H     -1.690215    0.939473    1.032595
H      0.328866    1.208596    1.133343
H      0.838646    1.252472   -0.585222
H      3.031784    0.830353   -1.302329
H     -1.115988    0.121193   -1.309610
H      0.962380   -1.096051   -0.772331
H     -7.557912    1.551693   -1.858397
H      6.596700    0.172543    2.630374
