60

C      1.099459    0.087255   -1.794392
C      0.874169    4.498852    2.269255
C      6.023129   -0.249793   -1.765358
C     -1.271490   -4.053584   -1.546386
C     -6.064764    0.801204    0.917269
C      2.284590   -0.912279    1.700049
C      3.269205   -1.856122    1.921633
C      1.446751    1.006625    0.398043
C     -1.733983    0.957007   -1.738838
C      3.613852   -0.081794   -0.135693
C     -2.126441   -1.414663   -1.274340
C     -3.701603    0.153738   -0.462141
C     -1.345624    2.064635    0.392882
C      0.379134    0.506030   -0.516617
C      0.114103    3.882596    1.158374
C      2.490816   -0.037420    0.658468
C     -2.530731   -0.108726   -1.151115
C     -0.662425    1.528061   -0.789608
C      4.401924   -1.906794    1.126503
C      4.609291   -1.031200    0.083390
C     -2.892198   -2.441725   -0.710541
C     -4.481275   -0.831069    0.106114
C     -4.042584   -2.141888   -0.037553
O      0.078284    4.364247    0.004865
O      5.392176   -2.865040    1.358421
O     -4.829122   -3.134106    0.535622
O      5.759783   -1.122979   -0.683302
O     -2.457636   -3.759376   -0.851059
O     -5.660117   -0.555757    0.798730
O     -0.607472    2.705623    1.380092
H      1.731451   -0.804758   -1.508578
H      1.771776    0.845578   -2.180804
H      0.380068   -0.160482   -2.575603
H      1.113048    3.739637    3.038883
H      1.775853    5.048667    1.921720
H      0.206960    5.286388    2.711152
H      7.116583   -0.248564   -2.016112
H      5.492308   -0.574943   -2.687028
H      5.741161    0.801321   -1.548776
H     -1.277448   -3.624135   -2.556289
H     -1.199638   -5.166743   -1.598809
H     -0.396256   -3.662750   -1.001223
H     -6.319233    1.236531   -0.077171
H     -5.249290    1.430824    1.348507
H     -6.939018    0.922259    1.561119
H      1.397303   -0.879032    2.329399
H      3.117325   -2.555699    2.744739
H      1.951535    1.874167   -0.039321
H      1.062579    1.285642    1.407582
H     -2.420234    1.853498   -1.878586
H     -1.331372    0.786898   -2.741023
H      3.802975    0.591260   -0.956812
H     -1.212166   -1.727870   -1.803560
H     -4.075946    1.177723   -0.330593
H     -2.018042    1.311539    0.899652
H     -2.097850    2.842243    0.038957
H     -0.092358   -0.442838   -0.116103
H     -0.199115    2.359408   -1.354550
H      5.263154   -3.509985    2.109006
H     -4.525317   -4.087341    0.440454
