53

C     -0.111032   -0.711385   -1.539913
C      5.144114    0.729809    1.873334
C     -0.514489    4.046842    0.097608
C     -6.684101    0.351606   -0.929227
C      3.108482   -2.250065   -1.669118
C      4.401253   -1.914596   -2.072702
C     -1.592488   -0.718701    1.628062
C     -1.706660    1.598771    0.620452
C     -3.561032    0.142529    0.456710
C      3.399679   -0.980167    0.278237
C     -0.220478   -2.757107    1.378021
C      0.237237   -0.987086   -0.092538
C     -2.285600    0.386772    0.884038
C      2.582054   -1.788553   -0.484195
C     -0.924951   -1.615468    0.648659
C      5.207657   -1.111124   -1.310741
C      4.681374   -0.639941   -0.109537
C     -2.414233    2.551711   -0.069153
C     -4.336976    1.088845   -0.258387
C     -3.697539    2.322692   -0.506025
C      1.226453   -2.140409   -0.060875
O      6.505168   -0.765327   -1.700387
O     -4.430434    3.265759   -1.201782
O      5.506161    0.167383    0.643635
O     -1.826732    3.779868   -0.335191
O     -5.543906    0.820790   -0.648550
O      1.148433   -2.498051    1.293895
H     -0.520002   -1.661386   -1.957957
H     -0.876094    0.051745   -1.677001
H      0.801480   -0.386877   -2.056846
H      5.478676    0.058066    2.714482
H      4.063176    0.887070    2.020984
H      5.642414    1.725677    2.031965
H      0.178973    3.241702   -0.207261
H     -0.456358    4.117631    1.201136
H     -0.150879    5.008388   -0.312466
H     -7.522261    1.134129   -0.781960
H     -6.881605   -0.017306   -1.999072
H     -7.103635   -0.504392   -0.266198
H      2.471371   -2.894792   -2.287305
H      4.772498   -2.303335   -3.016658
H     -2.360765   -1.296652    2.173654
H     -0.864919   -0.285908    2.346330
H     -0.714584    1.798298    0.951928
H     -4.036617   -0.816453    0.658054
H      2.983889   -0.620190    1.213759
H     -0.589596   -2.915221    2.389077
H     -0.388307   -3.657677    0.716895
H      0.617694   -0.101274    0.423352
H     -1.629658   -1.973120   -0.118001
H      0.777377   -2.968514   -0.631282
H      7.094829   -0.172836   -1.133547
H     -4.084511    4.177832   -1.435658
