54

C     -0.918995    0.596146    3.088011
C     -0.207671    0.259031   -0.692625
C     -5.843997    2.097326   -1.252843
C      4.207016    2.191565   -2.640189
C      4.057294   -2.902368    2.491578
C     -2.622935   -1.699129   -0.599860
C     -3.199941   -1.886171   -1.827254
C     -2.420601   -0.360315    1.475005
C      1.158541    0.992093    1.236699
C     -3.945412    0.300799   -0.302953
C      3.021133    0.999386   -0.401669
C      2.941166   -0.680041    1.316834
C     -1.272046    0.595674    1.581815
C     -0.048925    0.244469    0.785734
C     -3.000632   -0.597590    0.164107
C      2.404461    0.445704    0.695876
C     -4.139039   -0.997526   -2.297066
C     -4.505495    0.090396   -1.531287
C      4.193438    0.480547   -0.949802
C      4.094700   -1.190749    0.778377
C      4.713228   -0.630066   -0.329206
O     -4.740551   -1.167583   -3.544656
O      5.884134   -1.197681   -0.828228
O     -5.452226    0.975448   -2.018772
O      4.805741    1.048181   -2.058602
O      4.667721   -2.329409    1.379256
H     -0.406113    1.510982    3.384886
H     -1.897498    0.600909    3.609903
H     -0.409287   -0.347794    3.359979
H     -0.038347   -0.728198   -1.163833
H     -1.187200    0.664620   -1.046933
H      0.615846    0.911337   -1.110400
H     -6.080617    1.765858   -0.230320
H     -5.031569    2.865276   -1.200122
H     -6.745232    2.563551   -1.713716
H      4.120278    3.036703   -1.923451
H      4.695903    2.485327   -3.582667
H      3.154505    1.882929   -2.893866
H      4.129895   -2.222893    3.379039
H      2.964351   -3.104180    2.352291
H      4.602690   -3.867234    2.702171
H     -1.882954   -2.411681   -0.245458
H     -2.955587   -2.724737   -2.482742
H     -3.205611   -0.136105    2.253313
H     -2.003517   -1.358104    1.831537
H      1.261958    1.013667    2.339391
H      1.093789    2.058191    0.911995
H     -4.214559    1.154150    0.329001
H      2.653245    1.899521   -0.916063
H      2.472872   -1.131116    2.181479
H     -1.577564    1.622311    1.330225
H      0.129686   -0.858732    1.047786
H     -4.468623   -1.972900   -4.110369
H      6.379151   -0.849794   -1.615736
