60

C      1.338698    0.323001    1.953670
C     -0.656824    6.143113    0.372490
C      6.035744   -1.260119    1.307919
C     -1.738419   -2.769269   -3.438417
C     -5.421119    0.666380    1.866714
C      1.682465   -2.490620   -0.778981
C      2.385454   -3.688356   -0.671975
C      1.440490   -0.052343   -0.497059
C     -1.113150    1.649112   -0.654227
C      3.468445   -1.304661    0.189065
C     -1.952342   -0.501023   -1.617548
C     -3.210811    0.539663    0.094082
C      0.784588    2.655418    0.577450
C      0.502687    0.207636    0.667443
C     -0.261390    4.795672   -0.152048
C      2.206102   -1.290880   -0.354838
C     -2.116498    0.528841   -0.745964
C     -0.193128    1.537378    0.494386
C      3.651084   -3.683636   -0.123357
C      4.197756   -2.492844    0.309255
C     -2.881708   -1.528292   -1.654595
C     -4.157453   -0.459565    0.090643
C     -3.981053   -1.491663   -0.791026
O     -0.477690    4.492285   -1.344332
O      4.378453   -4.842997    0.000680
O     -4.906802   -2.525471   -0.834759
O      5.471026   -2.483684    0.861998
O     -2.760621   -2.591159   -2.519876
O     -5.220925   -0.375969    0.960216
O      0.326950    3.940047    0.701299
H      0.787292    1.022670    2.610949
H      1.326368   -0.651110    2.489921
H      2.335247    0.718837    1.786096
H     -1.519663    6.481338   -0.243017
H     -0.998186    6.020562    1.402985
H      0.213168    6.829225    0.278891
H      5.471281   -0.803143    2.132827
H      7.077441   -1.460794    1.666682
H      6.106758   -0.520659    0.473955
H     -1.963339   -2.245698   -4.400054
H     -1.622139   -3.854065   -3.729790
H     -0.781567   -2.397092   -3.062663
H     -4.658604    0.580255    2.673248
H     -5.234508    1.648824    1.346965
H     -6.451969    0.683593    2.282939
H      0.698828   -2.575833   -1.215951
H      1.977556   -4.632749   -1.004088
H      2.202524    0.771694   -0.544870
H      0.875314    0.029006   -1.422442
H     -0.656005    1.844973   -1.624411
H     -1.788203    2.537492   -0.424407
H      3.980320   -0.424814    0.548458
H     -1.125871   -0.555389   -2.310831
H     -3.297298    1.387815    0.774189
H      1.525481    2.500444    1.414848
H      1.469478    2.614717   -0.346879
H     -0.211789   -0.592166    0.770917
H     -0.854825    1.614881    1.426296
H      3.987296   -5.712532   -0.311742
H     -5.690393   -2.506274   -0.224222
