32

C     -2.648092    1.351601    0.316515
C     -3.618146   -1.293281   -0.028500
C      4.397544    1.275187    0.838248
C     -0.535506    0.474613    1.346547
C      1.784094    0.475960    0.453796
C      1.032467   -0.946364   -1.730490
C     -1.959389    0.210110    1.032284
C     -2.167192   -1.081774    0.273963
C      0.440717    0.101299    0.318825
C      0.068731   -0.614789   -0.783492
C      2.354792   -0.593191   -1.624705
C      2.716322    0.132810   -0.501317
C     -1.320648   -1.008591   -0.939395
O      3.345004   -0.899396   -2.537761
O     -1.751157   -1.271753   -2.095107
O      4.031764    0.541099   -0.297166
H     -3.730964    1.331164    0.543778
H     -2.253485    2.286984    0.755192
H     -2.433294    1.365101   -0.758878
H     -3.709723   -2.243283   -0.618346
H     -4.135822   -1.492366    0.929477
H     -4.097952   -0.467962   -0.554462
H      5.428583    1.642204    0.811150
H      3.704142    2.158094    0.959247
H      4.181528    0.632814    1.724709
H     -0.431674    1.592344    1.483614
H     -0.217081    0.065274    2.341330
H      2.040595    1.042743    1.340911
H      0.728109   -1.505749   -2.586159
H     -2.511244    0.082876    2.005601
H     -1.840696   -1.910344    0.955711
H      3.107675   -1.433432   -3.375120
