73

C     -5.261272   -1.011407    0.800897
C     -3.223030   -3.487925   -1.055643
C      4.334643   -2.108921    1.876590
C      4.361021    1.548337   -2.951263
C     -6.373055    4.246489   -1.532640
C     -0.374898   -0.963689    3.532106
C      6.642926    0.224885    1.308766
C     -0.117536   -1.033825   -1.503466
C      7.628567    0.313998    0.359150
C      1.177335   -0.984780   -1.071248
C     -5.155122   -0.990478   -1.678934
C     -0.927510   -1.025823    0.771284
C      5.043217    0.837007   -0.344852
C     -5.129887    1.532127   -1.465648
C     -2.466541    1.401080   -0.849999
C     -4.879707   -1.829554   -0.429433
C     -3.402628   -2.128657   -0.381052
C      3.437690   -0.870993    1.807475
C     -1.150617   -1.053863   -0.583256
C      5.341888    0.488215    0.954127
C     -4.507716    0.321717   -1.420017
C     -3.152254    0.255820   -1.106698
C      7.303629    0.664744   -0.932789
C     -3.114700    2.616451   -0.901325
C      1.469215   -0.954245    0.317909
C      6.011459    0.936961   -1.330537
C     -4.454368    2.711126   -1.208653
C      0.413841   -0.975424    1.192150
C     -2.555553   -1.101773   -1.082336
C      4.286301    0.387225    1.994379
O      8.312665    0.756525   -1.906551
O     -2.388387    3.780322   -0.633267
O      3.414314    1.477328    1.939668
O      5.718642    1.288070   -2.642299
O     -5.044087    3.942193   -1.245143
O      0.627231   -0.947124    2.563318
O      2.770127   -0.906747    0.630840
H     -5.712018   -0.039163    0.505845
H     -6.033040   -1.536902    1.407626
H     -4.393709   -0.829849    1.454190
H     -2.406485   -4.061926   -0.573970
H     -4.133190   -4.098479   -1.013801
H     -2.991373   -3.331563   -2.130572
H      3.683815   -2.979841    1.646015
H      5.154119   -2.066970    1.147424
H      4.758108   -2.259789    2.872498
H      3.796168    0.627244   -2.622677
H      4.020574    2.361106   -2.306593
H      4.190846    1.714209   -4.033726
H     -7.010169    3.405573   -1.809152
H     -6.401966    5.054588   -2.299110
H     -6.834312    4.705623   -0.608945
H     -1.225210   -0.273622    3.327730
H      0.041192   -0.722536    4.552891
H     -0.787455   -1.990111    3.617102
H      6.880972   -0.052539    2.341920
H     -0.338107   -1.057521   -2.582495
H      8.680053    0.113113    0.595678
H      1.988995   -0.969153   -1.801123
H     -6.218295   -0.915459   -1.902748
H     -4.570322   -1.459320   -2.510130
H     -1.705366   -1.037967    1.511154
H      4.022496    1.046170   -0.634127
H     -6.179712    1.549629   -1.710904
H     -1.419968    1.350779   -0.607825
H     -5.456442   -2.761331   -0.483627
H     -3.063269   -2.268742    0.680446
H      2.777351   -0.903273    2.685232
H     -2.530510   -1.425546   -2.159807
H      4.743581    0.398098    3.004828
H      9.274629    0.563019   -1.648640
H     -2.847597    4.685530   -0.665809
H      3.629769    2.111531    1.225240
