39

C     -3.742667   -1.067272   -0.078757
C     -4.495110    1.328613   -0.591457
C      5.062260   -1.310914    0.412422
C     -0.595654    0.848104   -1.034083
C     -1.783730   -0.082036    1.702086
C     -2.684646    0.838104    0.967948
C     -0.340518    0.165482    1.387086
C      3.418442   -0.945756   -1.401956
C      2.032666   -0.452386   -1.606690
C      2.299489    1.128467    0.366782
C     -3.612572    0.402716    0.126311
C      3.717518   -0.877781   -0.112480
C      0.070474   -0.025697   -0.011490
C      2.578318   -0.338640    0.667774
C      1.541887    0.018416   -0.263458
H     -3.990118   -1.544702    0.887222
H     -4.542149   -1.274833   -0.796173
H     -2.802500   -1.499288   -0.488888
H     -5.547411    1.031411   -0.409711
H     -4.356068    2.369828   -0.268785
H     -4.276059    1.237366   -1.677586
H      5.558750   -1.999446   -0.269397
H      4.879057   -1.881769    1.363248
H      5.723347   -0.460347    0.609394
H      0.132672    1.211077   -1.807302
H     -0.996587    1.747104   -0.567314
H     -1.373071    0.323103   -1.631416
H     -1.953904    0.007057    2.800761
H     -2.055521   -1.118222    1.369594
H     -2.627837    1.929435    1.101716
H     -0.190039    1.272134    1.615581
H      0.329359   -0.329621    2.129082
H      4.091169   -1.310561   -2.198374
H      1.404970   -1.310259   -1.923445
H      2.007220    0.383694   -2.324999
H      1.902244    1.679144    1.236196
H      3.015797    1.700907   -0.240195
H     -0.240622   -1.082259   -0.298071
H      2.441144   -0.710373    1.691868
