57

C     -4.404070   -1.997329    3.237219
C     -5.921792    3.319678   -1.407583
C      4.567702    3.363135    0.308957
C      5.431920   -3.686653   -1.400213
C     -3.586345   -0.314777    1.173126
C     -4.067104    1.409787   -0.338653
C      3.497277    0.755064    0.064428
C      3.741533   -1.526323   -0.478679
C      0.590304   -1.000501   -2.012365
C     -0.288564   -0.284507    1.458381
C     -3.150926    0.503627    0.152091
C      2.931542   -0.475662   -0.034047
C      0.549778   -0.235682   -0.716040
C     -0.729659   -0.446937    0.049880
C     -4.876723   -0.222259    1.670993
C     -5.352977    1.508831    0.150475
C      4.819351    0.991386   -0.255068
C      5.050737   -1.334295   -0.803826
C     -1.812015    0.446649   -0.396385
C     -5.781145    0.688005    1.170883
C      5.583264   -0.065361   -0.688136
C      1.541312   -0.778583    0.290415
O      1.825194   -0.711933   -2.613466
O     -1.512755    1.233259   -1.356130
O     -7.080677    0.768729    1.684834
O      6.918444    0.182982   -1.008761
O     -5.325809   -1.049775    2.707664
O     -6.250105    2.426500   -0.360642
O      5.365781    2.284015   -0.138303
O      5.856821   -2.361588   -1.242564
O      1.114207   -0.204111    1.485199
H     -3.490198   -1.429838    3.525491
H     -4.788797   -2.500269    4.123832
H     -4.160859   -2.723694    2.444137
H     -5.781190    2.790148   -2.363826
H     -4.989864    3.840499   -1.158738
H     -6.757003    4.059678   -1.457365
H      5.209977    4.229341    0.518409
H      3.822602    3.658953   -0.467424
H      4.042543    3.010972    1.241517
H      4.394577   -3.788716   -1.772420
H      5.468961   -4.184758   -0.403293
H      6.066175   -4.244540   -2.131985
H     -2.935711   -1.037503    1.595833
H     -3.714709    2.060310   -1.153264
H      2.861357    1.570392    0.411501
H      3.330923   -2.531275   -0.573270
H     -0.202817   -0.739793   -2.705276
H      0.579912   -2.095428   -1.858303
H     -0.636821   -1.114427    2.112378
H     -0.647549    0.708229    1.827981
H      0.674704    0.845362   -0.852977
H     -1.016821   -1.528512   -0.078275
H      1.367069   -1.869221    0.383367
H      1.902407    0.280428   -2.667558
H     -7.330612    0.136954    2.433882
H      7.487243   -0.588665   -1.328041
