73

C     -4.491825    1.898404   -3.583784
C     -2.441159   -0.104808   -3.368519
C      3.840978   -2.139178    2.082797
C      6.867413    0.733708   -3.044560
C     -8.028632    1.084091    2.676519
C     -0.844251    1.382729    3.713646
C      6.661923   -1.255502    1.512930
C     -0.401084   -0.868797   -0.811146
C      7.842439   -1.716498    0.948120
C      0.847389   -0.924436   -0.202230
C     -4.758528    1.864526   -1.079297
C     -1.346584    0.252621    1.015429
C      6.204247   -0.062583   -0.458110
C     -5.919814    0.899196    0.875800
C     -4.124827   -1.120210    1.011179
C     -4.353160    1.087641   -2.340317
C     -2.915635    0.634242   -2.101463
C      3.418140   -0.905016    1.261581
C     -1.513729   -0.297931   -0.248998
C      5.812626   -0.416707    0.823285
C     -4.893788    0.838507   -0.025898
C     -3.971199   -0.174899    0.021866
C      8.191589   -1.340649   -0.324904
C     -5.156911   -1.082416    1.938851
C      0.996349   -0.380389    1.038266
C      7.367049   -0.504989   -1.039546
C     -6.078498   -0.060381    1.882439
C     -0.124432    0.214345    1.646641
C     -2.838801   -0.279469   -0.933125
C      4.543645    0.104527    1.379549
O      9.363246   -1.773132   -0.941591
O     -5.281133   -2.046474    2.917823
O      4.761663    0.530779    2.685422
O      7.743048   -0.134376   -2.333646
O     -7.125056    0.002468    2.801684
O      0.104928    0.742641    2.902764
O      2.202913   -0.406251    1.683454
H     -3.494650    2.248556   -3.963094
H     -4.917550    1.222017   -4.379320
H     -5.182022    2.756632   -3.488929
H     -2.991015    0.273309   -4.241278
H     -1.366659    0.116907   -3.513316
H     -2.600190   -1.202553   -3.227271
H      4.138239   -1.870657    3.100565
H      2.885139   -2.731528    2.187005
H      4.594545   -2.718705    1.512016
H      7.404877    1.105429   -3.951162
H      5.932471    0.238953   -3.340540
H      6.614491    1.639752   -2.450171
H     -7.450037    2.051161    2.706907
H     -8.454706    1.029901    1.650667
H     -8.807888    1.066532    3.468226
H     -1.728781    1.749337    3.158536
H     -1.136123    0.740654    4.592794
H     -0.395922    2.303314    4.187525
H      6.432292   -1.573460    2.516492
H     -0.482040   -1.314742   -1.804946
H      8.512675   -2.376383    1.482755
H      1.675091   -1.413707   -0.754522
H     -5.702788    2.420553   -1.255410
H     -3.965224    2.627030   -0.839942
H     -2.195257    0.711769    1.496597
H      5.547022    0.597875   -1.011330
H     -6.664258    1.697056    0.855777
H     -3.418258   -1.959692    1.102939
H     -4.968587    0.146482   -2.340773
H     -2.304012    1.548680   -2.048302
H      3.368908   -1.193201    0.196032
H     -2.939916   -1.330886   -1.355508
H      4.282363    1.045076    0.811842
H      9.987602   -2.378879   -0.461579
H     -6.045260   -1.979625    3.571405
H      5.674887    0.431710    3.000701
