39

C      4.412659    0.355574    0.885630
C      4.835805   -0.620063   -1.413271
C     -4.862032    0.584861    1.806761
C      0.029991   -0.617231   -1.771340
C      1.754186   -0.732953    0.846979
C      2.656652   -0.931403   -0.280850
C      0.498821    0.019797    0.616544
C     -4.132831   -0.096823   -0.455678
C     -2.883306   -0.189404   -1.236145
C     -1.792904    1.713843    0.048196
C      3.913278   -0.415367   -0.259426
C     -3.861080    0.360525    0.748852
C     -0.476895   -0.495964   -0.358888
C     -2.408736    0.624846    0.907163
C     -1.761695    0.329867   -0.413415
H      5.411984    0.758952    0.647224
H      3.768312    1.214131    1.159435
H      4.525440   -0.278390    1.792147
H      5.225822    0.378340   -1.723605
H      4.340535   -1.082195   -2.276639
H      5.739445   -1.201813   -1.087583
H     -4.784641    1.661132    2.119279
H     -5.898768    0.417430    1.449731
H     -4.645086    0.004406    2.736209
H     -0.781015   -0.281474   -2.496472
H      0.240182   -1.643630   -2.093867
H      0.851787    0.095837   -1.984660
H      2.317118   -0.133071    1.629857
H      1.571864   -1.702531    1.415195
H      2.394475   -1.488051   -1.160691
H      0.033123    0.143461    1.638174
H      0.817834    1.086819    0.388109
H     -5.137186   -0.376549   -0.848156
H     -3.004024    0.342132   -2.208704
H     -2.672671   -1.275021   -1.445824
H     -2.555004    2.389180   -0.405792
H     -0.960713    2.245940    0.504873
H     -0.796644   -1.509186   -0.034738
H     -1.924084    0.344044    1.844165
