39

C     -1.694092   -2.404448   -1.910321
C      2.320892   -1.010279    0.264669
C      1.502117   -0.863414    2.543405
C     -1.537525    1.264729   -1.811089
C      1.667708    2.009674    0.065689
C     -2.540517   -0.957901   -0.167048
C     -2.365102    0.280234    0.686875
C      1.719189    1.178134    1.269515
C      0.759181    1.657175   -1.030200
C     -1.536181   -1.325898   -0.934877
C     -0.930793    0.760365    0.618381
C     -0.254405   -0.617758   -0.778726
C     -0.074627   -0.470007    0.740855
C      1.328635   -0.252652    1.139932
C     -0.466411    0.907552   -0.774733
H     -1.007942   -2.295209   -2.784230
H     -1.504118   -3.395226   -1.432566
H     -2.752380   -2.426238   -2.235392
H      3.240237   -1.174012    0.899587
H      2.654925   -0.448549   -0.604217
H      1.935946   -2.006828    0.002353
H      1.401774   -1.957748    2.465818
H      0.722955   -0.484550    3.227932
H      2.531140   -0.652314    2.902952
H     -1.381020    2.363235   -2.024103
H     -1.274146    0.737489   -2.751658
H     -2.550064    1.122838   -1.469811
H      2.714955    2.078959   -0.364942
H      1.484077    3.076034    0.408411
H     -3.468154   -1.480047   -0.111818
H     -2.524866   -0.096018    1.739806
H     -3.109308    1.041666    0.486577
H      2.770319    1.173639    1.692148
H      1.123079    1.631020    2.117246
H      0.494880    2.628434   -1.557553
H      1.325788    1.107196   -1.845495
H     -0.755186    1.568441    1.327978
H      0.607453   -0.967328   -1.321596
H     -0.578414   -1.300390    1.310246
