72

C     -8.820113    1.502178   -1.033700
C      7.080335   -1.756134   -3.259233
C     -0.572660   -2.003837    3.736943
C      0.213240    1.313716   -2.632222
C     -5.087824   -1.609066    0.447628
C     -5.975576   -2.367471   -0.325233
C      6.193734    1.496269    0.379585
C      7.127347    0.294507   -1.435967
C     -6.429038    0.308650    0.139720
C      0.980912   -1.000917    1.667988
C      1.252633    0.069314   -0.387917
C      8.309035    2.272151   -0.562822
C      4.433918    0.389813    2.732507
C     -3.507865    1.918515   -0.357793
C      7.208379    1.354031   -0.538407
C     -5.308389   -0.272992    0.683409
C      1.835033   -0.539242    0.696384
C      5.115193    0.627238    0.430384
C      3.923501    0.568708    1.306115
C     -7.081769   -1.751107   -0.850002
C     -7.325181   -0.417286   -0.629228
C      6.079840   -0.587098   -1.420751
C     -0.401571   -0.884586    1.607253
C     -0.115067    0.203940   -0.485101
C     -3.144969    0.937659    0.749988
C     -4.354576    0.484767    1.496050
C      3.283499   -0.718667    0.867802
C      5.072411   -0.406477   -0.473713
C     -0.979517   -0.268393    0.509172
O      8.349304    3.218252    0.262785
O      5.159204   -0.815169    2.727305
O     -4.150213    1.343930   -1.420536
O     -7.966381   -2.505431   -1.619641
O     -3.964267   -0.189505    2.644871
O     -8.449826    0.155745   -1.177802
O      6.034364   -1.618958   -2.321033
O     -1.197772   -1.380439    2.633706
O     -0.620280    0.826218   -1.608896
O     -2.322238   -0.096859    0.339585
O      3.937410   -1.161699   -0.276492
H     -7.944207    2.201461   -1.068588
H     -9.435537    1.648003   -0.121604
H     -9.464284    1.797704   -1.893898
H      6.997735   -2.812904   -3.647892
H      7.004019   -1.035596   -4.097523
H      8.064702   -1.722001   -2.743550
H      0.085896   -1.236543    4.231803
H      0.110235   -2.824508    3.432016
H     -1.300361   -2.432745    4.445423
H     -0.356452    1.666195   -3.509060
H      0.894564    0.476330   -2.949863
H      0.862198    2.125054   -2.238819
H     -4.234436   -2.150902    0.833875
H     -5.793838   -3.425517   -0.507479
H      6.222834    2.312448    1.096796
H      7.961526    0.226936   -2.145380
H     -6.668588    1.365167    0.285066
H      1.406063   -1.495980    2.554906
H      1.912152    0.444227   -1.173136
H      9.135800    2.202237   -1.269149
H      5.144764    1.184139    2.985591
H      3.606616    0.273987    3.453154
H     -2.588315    2.410249   -0.693512
H     -4.106018    2.717213    0.139556
H      3.266748    1.439447    1.209258
H     -2.524946    1.564538    1.461010
H     -4.922431    1.389659    1.880952
H      3.442646   -1.527883    1.642407
H      5.356740   -1.016448    3.671890
H     -4.069820    1.934084   -2.197743
H     -7.815150   -3.477214   -1.797061
H     -4.065056   -1.155101    2.605550
