56

C      5.220693    1.787821   -1.446352
C     -5.827297    1.584165   -1.905288
C      1.738075   -1.085329    3.636666
C     -0.320751    2.526987    1.604270
C      0.760057   -0.579353   -1.868741
C      2.757851    0.562259   -1.003186
C     -3.403127    0.134335   -1.262151
C      0.746180   -3.189620    0.638645
C     -0.924669   -2.210954   -2.427470
C      1.579060   -0.022801   -0.766298
C      0.299750   -1.976057   -1.531147
C     -0.094639   -2.191190   -0.104710
C     -2.244730   -0.574503   -0.968641
C      3.520529    1.004810    0.083164
C     -3.817115    1.220376   -0.534319
C      1.082806   -0.204161    0.536901
C     -0.220347   -0.855633    0.653217
C     -1.414086   -0.213488    0.110666
C      3.049408    0.832058    1.365663
C     -3.023264    1.583299    0.513248
C      1.819347    0.222984    1.619159
C     -1.837209    0.867486    0.821310
O      0.288993   -3.325884    1.927076
O      3.807898    1.270444    2.439598
O     -3.398236    2.676002    1.281583
O      4.745825    1.615877   -0.111460
O     -4.985182    1.914189   -0.849003
O      1.375229    0.062754    2.920588
O     -1.142070    1.384864    1.916818
O     -2.055772   -1.613103   -1.839920
H      6.168178    2.330204   -1.453858
H      5.299455    0.811744   -1.955032
H      4.459052    2.411026   -1.985670
H     -6.847640    1.996435   -1.651088
H     -5.470905    1.987704   -2.874106
H     -5.969646    0.480214   -1.920973
H      0.855258   -1.635678    4.041095
H      2.306443   -1.811455    3.021738
H      2.418025   -0.840954    4.500034
H      0.479033    2.680641    2.326850
H     -1.019581    3.417677    1.623908
H      0.001766    2.457517    0.557286
H     -0.083631    0.108440   -2.053772
H      1.379432   -0.604457   -2.782177
H      3.197130    0.733680   -1.991100
H     -4.038356   -0.152600   -2.097104
H      0.630212   -4.176818    0.138002
H      1.822761   -2.926558    0.644175
H     -1.084915   -3.271629   -2.636356
H     -0.732050   -1.709797   -3.395278
H      1.048603   -2.720013   -1.818273
H     -1.126693   -2.600233   -0.093404
H     -0.355266   -1.178382    1.728812
H     -0.697174   -3.356689    1.967833
H      3.500907    1.163734    3.390162
H     -4.223603    3.197615    1.090680
