48

C      3.250696    1.321950    2.879274
C     -3.630301   -3.748747    0.764451
C     -0.493902    2.819398    0.407381
C      2.367584    1.069732   -2.000884
C      2.798066    2.341542   -1.766155
C      2.584125    0.545572    0.289919
C     -3.755188   -0.980996    0.993719
C     -2.792596    1.141964    0.894921
C      0.028295   -2.783792   -1.939148
C      2.241731    0.123116   -0.995933
C     -3.918908    0.378922    1.137479
C      3.123757    2.718404   -0.496196
C      3.019963    1.827269    0.538128
C     -2.549500   -1.560825    0.631018
C     -1.576161    0.614158    0.532568
C      0.319799   -1.481322   -1.196191
C      1.789677   -1.250194   -1.276894
C     -1.460764   -0.751517    0.400767
O     -1.312415   -2.951276   -2.241154
O     -5.135520    0.967253    1.503830
O      3.567823    4.012693   -0.220473
O      2.551560   -2.119749   -0.506414
O      3.364253    2.256094    1.824995
O     -2.482977   -2.966201    0.513844
O     -0.488683    1.431558    0.303390
O     -0.274316   -1.354815    0.036281
H      3.959323    0.470824    2.714968
H      3.439161    1.767246    3.864332
H      2.230569    0.879202    2.881698
H     -3.311653   -4.831658    0.811736
H     -4.067683   -3.500497    1.769281
H     -4.379322   -3.681706   -0.033225
H     -1.458174    3.190431   -0.035868
H     -0.476011    3.206321    1.442352
H      0.299609    3.318693   -0.160196
H      2.103040    0.750119   -3.009215
H      2.874114    3.031638   -2.595211
H      2.496305   -0.175960    1.101369
H     -4.618293   -1.639321    1.173681
H     -2.908675    2.211359    1.005907
H      0.463988   -3.654067   -1.412062
H      0.573465   -2.709357   -2.905552
H     -0.181957   -0.707104   -1.863283
H      2.135337   -1.455696   -2.339057
H     -1.562710   -2.305421   -2.962258
H     -5.765366    1.224406    0.752641
H      3.645866    4.669363   -0.971123
H      3.372966   -1.679006   -0.243436
