71

C      1.203716   -3.670011   -0.862183
C     -2.656402    1.163082   -2.072268
C     -4.083365    2.764410    1.616013
C      5.148315   -1.650285    0.021137
C      5.497799    0.218611   -1.649824
C      2.130921    3.167505    0.813575
C     -6.454814   -2.162156    0.920274
C     -5.877494   -2.988970   -0.013582
C     -5.704760   -1.120973    1.422141
C     -4.562893   -2.778787   -0.443224
C     -4.395871   -0.921326    0.986643
C      3.295377   -0.039304    1.505833
C      2.811149    1.159515    2.320858
C      2.567105   -1.734375   -1.087523
C     -0.484504    0.024036   -1.789863
C      1.427379   -2.192289   -0.624964
C     -1.212921    1.379790   -1.752845
C     -2.831241    3.005689    0.861046
C     -3.810860   -1.742907    0.053345
C      3.550253    0.291759    0.084808
C      3.068485   -0.408523   -1.021632
C      0.140493    1.098912    0.117182
C     -0.989730    1.958823   -0.373866
C      0.440384   -1.410134    0.040182
C      0.539796    1.179752    1.488048
C     -2.428394   -1.471901   -0.351609
C      4.586856   -0.441385   -0.682705
C      1.794897    1.984073    1.610013
C     -0.351365   -0.249373   -0.335390
O     -2.334028    4.131088    0.652477
O      0.166600   -1.811390    1.256007
O     -1.961118   -2.287615   -1.197554
O     -2.167184    1.895890    0.350921
O      0.524840    2.248388    2.337859
O     -1.707766   -0.412226    0.155282
H      0.767791   -3.819694   -1.855036
H      0.534487   -4.121041   -0.108162
H      2.175803   -4.197856   -0.785350
H     -2.788367    0.245035   -2.650642
H     -3.270038    1.176419   -1.147886
H     -2.983723    2.045229   -2.699330
H     -3.875831    2.251751    2.575878
H     -4.775681    2.114022    1.040797
H     -4.595271    3.737897    1.750524
H      5.927173   -1.357382    0.726069
H      4.290343   -2.181606    0.503908
H      5.519108   -2.365402   -0.762670
H      4.899000    0.600296   -2.512760
H      6.124662    1.018951   -1.206846
H      6.173934   -0.551712   -2.080288
H      1.561400    4.113459    1.065129
H      3.191105    3.458244    1.091102
H      2.029691    3.092744   -0.289002
H     -7.486015   -2.329451    1.255242
H     -6.456972   -3.805598   -0.411153
H     -6.176474   -0.481548    2.155867
H     -4.103420   -3.425345   -1.177146
H     -3.850310   -0.095003    1.411477
H      4.324956   -0.243053    1.947433
H      2.740648   -0.953421    1.718944
H      3.633298    1.803207    2.645451
H      2.341167    0.731505    3.232875
H      3.212660   -2.474009   -1.607477
H      0.485833    0.188804   -2.304829
H     -1.050896   -0.663331   -2.393345
H     -0.741942    2.048129   -2.521768
H      3.711071    1.408714   -0.032284
H      2.847404    0.175988   -1.971971
H      0.976264    1.389245   -0.587290
H     -0.674298    3.035707   -0.473357
H      0.481783    0.252712    2.103281
