70

C      1.036945    2.006429   -2.430871
C     -4.044156   -0.667391    3.110460
C      0.086307   -4.047174   -0.789060
C     -5.764059    2.870592   -1.767159
C     -5.045406    3.178329    0.619425
C      8.840807   -1.551301    0.263870
C      8.454117   -0.896384    1.406812
C      7.911781   -1.746866   -0.724707
C      7.148261   -0.449310    1.541371
C      6.601596   -1.293249   -0.579026
C     -1.097296    2.520413   -1.348398
C      4.856679   -0.134681    0.785571
C     -2.188761    2.334557   -0.355445
C      3.855532   -0.242919   -0.063318
C     -4.379999    0.475759    0.863161
C     -0.340017   -2.252558    0.917780
C     -0.046854    1.756394   -1.373630
C     -3.714323   -0.342100    1.626031
C     -0.690881   -2.825744   -0.446493
C      6.200940   -0.635521    0.561202
C     -3.450583    1.961016   -1.030186
C     -4.382957    1.013950   -0.528526
C      2.507352    0.293776    0.234316
C     -0.844920   -0.461398   -0.472435
C     -0.360611   -1.630889   -1.315903
C      0.189023    0.663188   -0.411146
C     -2.502921   -1.183964    1.335988
C     -4.790102    2.477231   -0.707087
C     -1.144244   -0.964483    0.895513
O      2.367948    0.860233    1.343898
O      0.967543   -1.655843   -1.588924
O     -2.709010   -2.490958    1.533594
O     -0.450212   -0.151426    1.856895
O      1.487976    0.170446   -0.657811
H      1.554373    2.938739   -2.180962
H      0.497945    2.155686   -3.381377
H      1.725383    1.163593   -2.469641
H     -5.056261   -0.669339    3.452549
H     -3.433090   -0.108091    3.810331
H     -3.795680   -1.769573    3.308855
H      1.031920   -4.173747   -0.265080
H      0.173060   -4.100805   -1.899182
H     -0.548947   -4.940307   -0.515691
H     -6.161840    3.865392   -1.578610
H     -6.538259    2.099758   -1.958586
H     -5.185533    2.942146   -2.733227
H     -5.025535    4.287855    0.487331
H     -6.087683    2.934582    0.909575
H     -4.371625    2.867503    1.416058
H      9.869955   -1.913202    0.137638
H      9.199490   -0.750069    2.177616
H      8.154287   -2.250198   -1.636962
H      6.924912    0.059915    2.477988
H      5.901041   -1.458857   -1.362760
H     -1.213062    3.342466   -2.073695
H      4.628744    0.372771    1.715623
H     -1.830694    1.751824    0.466044
H     -2.345630    3.392004    0.060424
H      4.041939   -0.742415   -1.002326
H     -5.324389    1.075668    1.243663
H      0.726026   -1.967204    0.883544
H     -0.588338   -2.911995    1.746020
H     -1.756411   -3.033500   -0.566886
H     -3.286459    1.950757   -2.183712
H     -4.947756    0.418233   -1.316432
H     -1.711127   -0.073595   -1.025089
H     -0.919290   -1.749231   -2.264987
H      0.260083    1.084315    0.645356
H      1.457908   -2.461860   -1.331421
H     -0.584951   -0.587375    2.739065
