71

C      1.153459    3.618248   -0.574066
C     -3.256441   -1.482531   -2.367549
C     -3.434761   -2.741543    2.006422
C      5.720690   -0.674460   -1.730253
C      5.430348    1.198029   -0.048640
C      1.571138   -3.108720    0.207104
C     -5.574428    2.602237    2.674333
C     -5.613156    3.237220    1.451600
C     -4.577018    1.674668    2.890068
C     -4.664083    2.940236    0.469589
C     -3.629604    1.378989    1.908136
C      3.395168   -0.318093    1.171882
C      2.510752   -1.340248    1.867330
C      2.669333    1.619013   -0.977342
C     -1.301203   -0.055353   -2.464747
C      1.491015    2.167239   -1.007678
C     -1.768188   -1.449143   -2.242068
C     -2.421528   -2.975163    0.943747
C     -3.670778    2.017729    0.681950
C      3.589317   -0.619748   -0.272879
C      3.309710    0.291617   -1.315735
C     -0.058991   -0.806246   -0.690419
C     -1.213955   -1.819848   -0.904449
C      0.155142    1.624334   -1.453027
C      0.376008   -0.814108    0.704205
C     -2.695011    1.739702   -0.382126
C      4.785689    0.129193   -0.858710
C      1.439713   -1.852495    0.956693
C     -0.687039    0.485553   -1.171053
O     -1.857704   -4.053425    0.740356
O     -0.445264    2.390960   -2.369133
O     -2.815764    2.364911   -1.448610
O     -2.072552   -1.956939    0.128245
O      0.131767   -1.778818    1.640071
O     -1.686764    0.846931   -0.253448
H      0.375563    4.054204   -1.285824
H      0.681817    3.647698    0.421157
H      1.880328    4.394602   -0.602149
H     -3.718716   -2.399539   -1.953468
H     -3.498022   -1.507411   -3.457167
H     -3.746649   -0.552794   -2.005878
H     -3.803646   -3.688007    2.444443
H     -2.951565   -2.169553    2.824577
H     -4.290411   -2.137271    1.657721
H      6.157934   -1.538084   -1.184819
H      5.119026   -1.106907   -2.560265
H      6.461126   -0.005086   -2.178019
H      5.622332    2.070987   -0.701180
H      4.871402    1.548648    0.829653
H      6.476035    0.866979    0.250382
H      0.827002   -3.905916    0.426950
H      1.650714   -3.051226   -0.885573
H      2.547231   -3.585751    0.536416
H     -6.310744    2.826813    3.448050
H     -6.393386    3.964918    1.278538
H     -4.546724    1.177495    3.847368
H     -4.705587    3.450533   -0.495570
H     -2.848989    0.660529    2.061941
H      3.082631    0.719926    1.405168
H      4.390410   -0.419730    1.659276
H      3.073563   -2.210045    2.258547
H      2.071862   -0.818452    2.733467
H      3.625783    2.164131   -0.602216
H     -2.100938    0.589379   -2.843543
H     -0.471808   -0.000022   -3.221199
H     -1.351467   -2.074411   -3.063877
H      3.583494   -1.712402   -0.494003
H      3.261617   -0.120819   -2.359983
H      0.777732   -1.012152   -1.367126
H     -0.711729   -2.788803   -1.026799
H      0.627763    0.187613    1.187081
