70

C     -0.296738    3.221779    2.139027
C     -2.545370   -3.736042   -0.491455
C      0.871470    0.996979   -3.631222
C     -5.867757   -0.721010    0.892682
C     -6.353732    1.167458   -0.718739
C      8.341452   -1.777108    1.354784
C      8.121656   -0.436100    1.346385
C      7.309926   -2.595858    0.961370
C      6.874637    0.058080    0.944646
C      6.085363   -2.133462    0.565725
C     -2.358718    1.990770    1.898058
C      4.580855   -0.208390    0.147119
C     -3.161729    0.786218    1.529137
C      4.256188    1.058107    0.099062
C     -3.640849   -1.450008   -0.709804
C     -0.294965   -0.711417   -2.187039
C     -1.043098    1.959451    1.742958
C     -2.608860   -2.199027   -0.465818
C      0.096634    0.703686   -2.407717
C      5.851809   -0.771666    0.553658
C     -3.945625    0.923466    0.282835
C     -4.028135    0.004267   -0.764763
C      2.965452    1.563622   -0.317035
C     -0.386237    0.573202   -0.220104
C     -0.280780    0.790935    1.222957
C      0.675944    1.171089   -1.116042
C     -1.198247   -1.808650   -0.112695
C     -5.302733    0.396897    0.050842
C     -0.248595   -0.850520   -0.678237
O      2.714335    2.771875   -0.343756
O      1.065205    1.015773    1.562461
O     -0.633464   -2.413721    0.909717
O      1.076375   -1.175907   -0.386774
O      1.894599    0.792738   -0.720426
H      0.785807    3.013598    2.249443
H     -0.394605    3.903279    1.264185
H     -0.738655    3.682335    3.031828
H     -3.406552   -4.329829   -0.260731
H     -1.830629   -4.115051    0.313654
H     -2.120938   -4.109221   -1.443109
H      1.290803    0.040933   -4.061890
H      1.675518    1.759118   -3.505663
H      0.243290    1.399151   -4.465663
H     -6.266368   -0.317080    1.845680
H     -5.110444   -1.483444    1.150679
H     -6.732538   -1.143782    0.340754
H     -7.162374    0.490901   -1.039501
H     -5.918762    1.673498   -1.616950
H     -6.711422    1.992330   -0.053792
H      9.275776   -2.212564    1.652558
H      8.906369    0.254286    1.649026
H      7.475893   -3.668585    0.964741
H      6.796027    1.132254    0.971240
H      5.273148   -2.777284    0.255987
H     -2.852305    2.889191    2.292166
H      3.795579   -0.914147   -0.157045
H     -2.529503   -0.052385    1.693074
H     -3.940765    0.733859    2.363076
H      5.002961    1.780450    0.390210
H     -4.690339   -1.846428   -1.042611
H     -1.355966   -0.939565   -2.481216
H      0.324200   -1.456827   -2.708106
H     -0.873754    1.266902   -2.492175
H     -3.906798    2.024338   -0.035583
H     -4.036708    0.413707   -1.829081
H     -1.291463    1.073732   -0.615730
H     -0.522656   -0.135995    1.830367
H      0.587324    2.293395   -1.046217
H      1.186398    0.883687    2.527023
H      1.188185   -2.156261   -0.281947
