64

C      1.760528    3.411504    1.753322
C     -3.788402    0.775995   -0.776675
C     -4.369139   -3.790346    0.123493
C     -0.657652    3.871081   -2.236098
C      4.509519    0.319122   -0.554966
C      4.741373   -1.954500    0.562080
C     -0.103338   -2.966553   -0.207917
C      1.883575   -0.555004   -1.488826
C      0.974742   -1.612831   -2.179865
C      2.463122    1.009306    1.266864
C     -2.347886    1.761064    1.000082
C      1.537127    1.902999    1.472623
C     -3.319533    0.684515    0.656724
C     -3.695003   -2.692975    0.826186
C     -0.821306    3.228507   -0.877253
C      2.391772   -1.088534   -0.238596
C      2.615189   -0.452261    0.988113
C     -1.116202   -0.209553    0.439970
C     -2.488469   -0.569236    0.887135
C      0.041929    1.762512    1.509763
C     -0.879603   -0.615753   -0.961548
C      3.860233   -0.847567    0.155638
C     -0.146667   -1.837338   -1.181272
C     -0.978339    1.292777    0.579214
O     -3.610834   -2.712526    2.087137
O     -0.961158    4.054068    0.060892
O     -0.519964    2.152507    2.646840
O     -3.122226   -1.595834    0.188736
O     -0.810380    1.853989   -0.737998
O     -1.491588   -1.616958   -1.661927
H      1.654589    4.033001    0.872363
H      0.960319    3.775735    2.487729
H      2.631021    3.735250    2.291174
H     -4.580489    0.001221   -0.957004
H     -4.294867    1.751094   -0.931331
H     -2.963592    0.697787   -1.486548
H     -4.312941   -4.708447    0.774763
H     -5.442556   -3.580896   -0.026047
H     -3.908157   -4.059545   -0.828952
H     -1.505278    4.581307   -2.337188
H     -0.665737    3.088684   -3.001254
H      0.281021    4.444797   -2.189613
H      5.263795    0.812447    0.088016
H      3.741868    1.058108   -0.853015
H      4.979136   -0.039549   -1.497426
H      5.546494   -1.576648    1.212190
H      5.216349   -2.393546   -0.336091
H      4.168382   -2.712925    1.135843
H      0.571369   -3.798523   -0.523184
H     -1.106688   -3.475563   -0.094365
H      0.175137   -2.695216    0.827436
H      2.750304   -0.507345   -2.225144
H      1.351072    0.372423   -1.536915
H      0.616739   -1.158786   -3.120085
H      1.582286   -2.500184   -2.366224
H      3.610769    1.274051    1.265929
H     -2.692826    2.688175    0.545557
H     -2.325884    1.846783    2.126378
H     -4.213027    0.678694    1.320257
H      2.232759   -2.233121   -0.183297
H      2.648093   -1.141759    1.914121
H     -0.380861   -0.644580    1.158641
H     -2.526345   -0.834206    1.976490
H     -0.613674    0.259103   -1.646444
