59

C     -1.503989   -1.731939   -3.077392
C      4.676868   -1.294540   -1.095117
C      4.723286    2.404724    1.619903
C     -4.198227   -1.212092    1.479610
C     -5.504230    0.490027    0.190839
C     -0.285088    2.289531   -0.234855
C     -2.178842    0.681582    1.830183
C     -0.925884    1.394769    2.088391
C     -1.905723   -0.798252   -0.704278
C      2.423879   -1.898857   -1.745864
C     -1.248605   -1.483414   -1.584675
C      3.379045   -0.762947   -1.643369
C      3.932907    2.060419    0.417430
C     -3.026158    1.001881    0.679511
C     -3.107930    0.071766   -0.506347
C      1.326819   -0.211300   -0.470912
C      2.719195    0.278177   -0.803279
C      0.087898   -2.178563   -1.379590
C      0.888086    0.219993    0.896037
C     -4.133364   -0.081458    0.487544
C      0.043453    1.454154    0.962405
C      1.337285   -1.694180   -0.712990
O      3.647368    2.874606   -0.487032
O      0.247489   -3.369387   -1.823536
O      1.514255   -2.464707    0.419273
O      3.464615    0.790963    0.238341
O      1.409332    1.471225    1.320765
H     -2.547664   -1.784740   -3.414852
H     -1.073322   -0.927897   -3.706257
H     -1.148174   -2.741591   -3.402075
H      5.160167   -1.887818   -1.903684
H      5.399549   -0.490207   -0.851316
H      4.537529   -2.020835   -0.265866
H      4.653826    3.477975    1.899789
H      5.812129    2.175610    1.491100
H      4.385748    1.764387    2.459937
H     -5.172393   -1.693327    1.387411
H     -4.119335   -0.759342    2.493713
H     -3.346542   -1.913334    1.392384
H     -5.854698    1.153240    0.992539
H     -6.187170   -0.357671   -0.014207
H     -5.475910    1.088587   -0.757064
H      0.449144    2.178673   -1.049121
H     -0.137136    3.362390    0.114308
H     -1.326618    2.262063   -0.562603
H     -2.836665    0.996066    2.794514
H     -2.161951   -0.389298    2.008052
H     -1.177342    2.447500    2.462678
H     -0.411582    0.970671    3.020785
H     -1.628496   -0.813464    0.435653
H      2.009681   -1.984500   -2.793658
H      2.927540   -2.894338   -1.580892
H      3.608812   -0.408064   -2.676545
H     -3.411131    2.059685    0.562442
H     -3.429037    0.704173   -1.408452
H      0.553145    0.174642   -1.194041
H      2.571854    1.164031   -1.478187
H      0.878092   -0.499642    1.733787
H      0.694208   -2.715804    0.876769
