78

C     -3.870025    1.623586   -0.029293
C      2.643115    1.941199   -2.170219
C     -4.954207   -1.612458    1.427160
C     -6.511910   -2.778977   -0.114581
C      0.586990   -3.235911   -1.700037
C      6.063744   -0.201208    2.974130
C      2.834053    4.956677    3.042744
C      6.334244   -1.155701    2.027805
C      4.940715    0.597455    2.859964
C      2.928926    4.863921    1.667325
C      1.925211    4.125300    3.663003
C      5.476207   -1.312143    0.961054
C      4.092521    0.409575    1.763040
C      2.163512    3.989970    0.922110
C      1.165684    3.256834    2.914824
C     -2.707579   -2.812360    0.204226
C     -1.633308   -3.237333   -0.635200
C     -3.402733   -0.561623   -1.288907
C      0.211645    1.444862   -2.669899
C     -3.067903    0.655874   -0.931069
C      1.596353    0.962488   -2.606240
C      4.348676   -0.540224    0.808249
C      1.256003    3.159498    1.541462
C     -4.033436   -2.868488   -0.570298
C     -4.468577   -1.604859   -1.140225
C      0.032049   -0.352132   -1.323748
C      1.517299   -0.237344   -1.653364
C     -1.809436    1.398526   -1.266836
C     -0.301489   -1.228066   -0.223058
C      3.460970   -0.721058   -0.314678
C      0.413274    2.204493    0.831775
C     -5.146881   -2.121204    0.021919
C     -0.289774   -2.659082   -0.657390
C     -0.364019    1.088709   -1.255918
O     -1.992050    2.626450   -1.670576
O      3.752364   -1.623547   -1.158746
O     -0.387144    1.527106    1.509666
O      2.317445    0.020846   -0.531932
O      0.441135   -2.182352    0.380781
O      0.379757    1.947354   -0.492373
H     -4.930615    1.597340   -0.007818
H     -3.542271    1.502295    1.029306
H     -3.688132    2.699658   -0.340521
H      3.621236    1.727171   -2.681814
H      2.872549    1.799241   -1.078116
H      2.403702    2.993938   -2.413727
H     -4.579259   -2.477909    2.043610
H     -4.259923   -0.789214    1.528522
H     -5.912176   -1.310705    1.901461
H     -6.579189   -3.525570    0.692797
H     -7.330405   -2.037372   -0.034997
H     -6.532152   -3.343316   -1.069408
H      0.283845   -4.327085   -1.809828
H      1.657938   -3.314274   -1.475367
H      0.352166   -2.835853   -2.719542
H      6.723318   -0.074519    3.802819
H      3.437459    5.644367    3.623089
H      7.202787   -1.766602    2.124121
H      4.740559    1.346239    3.614191
H      3.627543    5.499632    1.163986
H      1.831374    4.180706    4.757671
H      5.689757   -2.076326    0.199836
H      3.229268    1.056263    1.717835
H      2.232037    3.918155   -0.149449
H      0.462872    2.621929    3.453285
H     -2.885134   -3.532398    1.063578
H     -2.729342   -1.828755    0.671861
H     -1.442659   -4.350538   -0.379095
H     -1.973420   -3.342295   -1.689861
H     -2.743198   -1.209939   -2.014959
H     -0.360616    0.838917   -3.400356
H      0.118157    2.525978   -2.834611
H      1.888939    0.650626   -3.641485
H     -4.152218   -3.816937   -1.121647
H     -5.103192   -1.720444   -2.081089
H     -0.423300   -0.739140   -2.263184
H      1.888964   -1.078568   -2.260599
H     -1.038691   -0.859348    0.492958
