70

C     -4.129520    1.599516   -3.441297
C      2.034112   -0.323497   -3.038351
C     -5.645702   -0.470265    0.590133
C     -4.867181    0.672490    2.675343
C      0.146322   -0.333390    1.890321
C      7.709891   -1.083307    3.441182
C      7.314777    0.246719    3.463396
C      7.034931   -2.012064    2.696326
C      6.223766    0.656027    2.724061
C      5.946991   -1.616052    1.956801
C      4.383316    0.063400    1.166135
C      3.847671    1.262173    1.053589
C     -2.717066   -1.525475    0.555365
C     -1.459842   -2.152119    1.167804
C     -3.830478    1.210847   -0.939535
C     -0.081019    1.005839   -3.407687
C     -3.468886    1.032097   -2.173573
C      1.288488    0.935576   -2.765610
C      5.544635   -0.270622    1.975964
C     -3.077229   -0.231832    1.103545
C     -3.565659    0.922805    0.478691
C      2.686753    1.551845    0.231726
C     -0.344549    0.202360   -1.132857
C      0.891368    1.020002   -1.297157
C     -2.330920    0.217299   -2.723312
C     -0.195880   -1.149790   -0.584632
C     -4.479818    0.126603    1.319022
C     -0.240908   -1.327749    0.854769
C     -0.911236    0.082445   -2.551635
O      2.257003    2.732949    0.201839
O     -2.731052   -0.656338   -3.662979
O     -0.543816   -1.223777   -3.039358
O      2.005274    0.610902   -0.536953
O      0.822263   -1.723569    0.097063
H     -3.536244    2.453316   -3.867813
H     -4.145626    0.822038   -4.270249
H     -5.141389    1.926308   -3.471220
H      2.005533   -0.585157   -4.120579
H      3.116322   -0.170687   -2.765989
H      1.693657   -1.211970   -2.481324
H     -6.088806    0.364921   -0.038020
H     -5.443050   -1.327755   -0.030075
H     -6.465505   -0.754598    1.286307
H     -3.992495    0.601530    3.351479
H     -5.671610    0.080012    3.161169
H     -5.260440    1.681756    2.546583
H     -0.221904    0.694287    1.690147
H      1.245227   -0.319683    2.095374
H     -0.293292   -0.637836    2.865592
H      8.564469   -1.393524    4.023721
H      7.829451    0.980504    4.036001
H      7.320402   -3.068890    2.657056
H      5.888601    1.685311    2.720482
H      5.401280   -2.356162    1.358502
H      3.898901   -0.715085    0.601213
H      4.302436    2.070669    1.599716
H     -2.617000   -1.524130   -0.504599
H     -3.532022   -2.269867    0.816675
H     -1.649884   -2.249269    2.249655
H     -1.284043   -3.166439    0.766671
H     -4.791783    1.890992   -0.685091
H      0.008629    0.589907   -4.451229
H     -0.458375    2.012099   -3.489409
H      1.883449    1.811479   -3.072055
H     -2.420131   -0.057837    2.064712
H     -3.229793    1.905186    1.030006
H     -1.065176    0.859196   -0.613739
H      0.694113    2.125249   -1.141730
H     -0.726049   -1.945972   -1.192884
H     -1.334647   -1.786523   -3.073194
