86

C    -13.289627   -0.202685   -1.496085
C     12.176814   -2.810509    1.612683
C    -12.882893    0.198178   -0.329400
C     12.219786   -1.599169    1.459524
C    -12.423703    0.634439    0.915644
C      1.011258   -0.851813   -1.210660
C     -0.162711   -0.696707   -0.713167
C      2.361659   -0.400719   -0.925321
C     -0.327696    0.167658    0.487971
C      2.623001    0.432207    0.256397
C     -1.087854    1.408556    0.245370
C      4.026452    0.930338    0.445486
C     -2.505755    1.462645    0.054139
C      4.971092   -0.248321    0.608120
C     -3.273352    0.647393   -0.932229
C      6.322150    0.344744    0.934648
C     -4.716304    1.142885   -0.901001
C      7.437458   -0.572921    1.143589
C     -5.698293    0.352961   -1.652517
C      7.845874   -1.460850    0.048879
C     -5.931890   -1.026019   -1.070675
C      8.233599   -0.755908   -1.222360
C     -6.291360   -1.088990    0.324660
C      9.279841    0.274389   -1.075416
C     -7.492866   -0.641785    1.024029
C     10.548468   -0.211231   -0.467239
C     -8.061597    0.702277    0.931548
C    -11.052208    0.714674    1.011642
C     11.001488    0.326582    0.646538
C     -8.910870    1.018251   -0.234462
C     12.248251   -0.141706    1.270150
C    -10.270421    0.332756   -0.176204
O     13.280172    0.130280    0.355345
O    -10.226951   -1.035273   -0.234713
H    -13.646422   -0.528028   -2.474110
H     12.128287   -3.863079    1.747288
H    -13.055583    0.883546    1.745694
H      0.977708   -1.565200   -2.153186
H     -1.060910   -1.190458   -1.162771
H      2.637530    0.271290   -1.837156
H      3.129065   -1.204338   -1.018938
H      0.452495    0.143456    1.232030
H     -1.124189   -0.529824    1.122427
H      2.497491   -0.258308    1.169560
H      1.957570    1.323395    0.308089
H     -0.838498    2.187919    1.060925
H     -0.547470    1.921613   -0.656564
H      4.259324    1.514384   -0.492762
H      4.069179    1.641596    1.307977
H     -3.079033    1.365842    1.055900
H     -2.780884    2.560657   -0.193713
H      4.634866   -0.871078    1.429321
H      4.981298   -0.734119   -0.396781
H     -3.206594   -0.416737   -0.666532
H     -2.885965    0.758421   -1.937980
H      6.521890    1.125081    0.133718
H      6.138917    1.010661    1.836743
H     -4.721846    2.201258   -1.300646
H     -5.004401    1.309468    0.181903
H      8.306962   -0.018445    1.585652
H      7.150055   -1.246760    2.018681
H     -5.140723    0.095374   -2.654831
H     -6.554283    0.881461   -2.007294
H      8.733020   -2.035708    0.365363
H      7.035856   -2.231743   -0.127425
H     -6.784078   -1.429527   -1.703224
H     -5.064125   -1.725372   -1.321115
H      8.546867   -1.477007   -2.032544
H      7.327404   -0.241731   -1.679437
H     -5.355798   -0.799249    0.980011
H     -6.235102   -2.246578    0.590291
H      9.570503    0.582651   -2.127113
H      8.940445    1.224293   -0.612990
H     -8.289290   -1.446350    0.870791
H     -7.239651   -0.809562    2.173312
H     11.073499   -0.996718   -0.947531
H     -7.211712    1.464906    0.889166
H     -8.565975    1.007891    1.909691
H    -10.632998    1.045485    1.901327
H     10.440355    1.110147    1.114323
H     -8.394252    0.582839   -1.148378
H     -8.999199    2.094001   -0.414549
H     12.497603    0.359956    2.220470
H    -10.842774    0.702111   -1.083746
H     12.900141   -0.172948   -0.530115
H    -10.627582   -1.449116    0.595863
