74

C      5.867548    3.741549   -2.709030
C      6.220461    0.081824    0.390102
C      4.795580    0.520296    0.707285
C      6.806673   -0.470082    1.675521
C      2.821792    1.565227   -0.479078
C     -6.647519    3.028723    0.026642
C     -2.901461   -3.707632    0.082487
C      5.003467    2.598339   -2.276937
C      4.235363    1.066351   -0.589169
C     -6.122800    1.629038    0.210896
C     -2.268291   -2.537224   -0.662021
C      1.925422    0.480045   -0.060191
C     -4.843046    1.651499    0.946080
C     -4.201284    3.015979    0.633208
C      0.070598   -0.986477   -0.575260
C     -1.128316   -2.995506   -1.471924
C     -0.030886   -2.019746   -1.706882
C     -4.990734    3.967048    1.408288
C     -1.332126   -0.534109   -0.333902
C     -2.437717   -5.274775    1.850638
C     -2.676097    1.357984    0.647951
N      6.017754   -1.612338    2.153627
N     -3.695420   -5.512416    1.960764
N     -6.263010    3.952815    1.071942
N      5.040354    2.161424   -1.068323
N      0.986906    0.052619   -0.878483
N     -3.813771    0.768461    0.534538
N     -2.886670    2.701648    1.151432
N     -1.437187    0.736525    0.322265
O      4.139823    1.979368   -3.168811
O     -6.036990    0.941887   -0.995233
O      2.000971   -0.145332    1.176289
O     -0.536924   -4.166431   -0.943197
O     -0.227576   -1.293857   -2.882712
O     -4.487226    4.789371    2.378125
O     -1.515605   -6.089177    2.517793
O     -2.043356   -4.209855    1.067022
O     -2.008170   -1.561396    0.273329
H      6.798811    3.333624   -3.155463
H      6.055970    4.349052   -1.796147
H      5.395074    4.364625   -3.472250
H      6.163442   -0.654740   -0.413719
H      6.812331    0.988302    0.145767
H      4.264685   -0.387295    1.000708
H      4.795399    1.315650    1.477515
H      7.867412   -0.776170    1.542380
H      6.718616    0.312054    2.452877
H      2.527953    1.908689   -1.491047
H      2.739528    2.428497    0.227094
H     -6.284871    3.370852   -0.974766
H     -7.772780    3.028320   -0.081268
H     -3.269874   -4.447826   -0.628277
H     -3.798127   -3.277542    0.616415
H      4.203960    0.230275   -1.346537
H     -6.879691    1.088715    0.847606
H     -3.095279   -2.134551   -1.317223
H     -4.975397    1.669130    2.059540
H     -4.196269    3.189284   -0.454983
H      0.375766   -1.597185    0.321018
H     -1.514482   -3.314825   -2.479552
H      0.946508   -2.545396   -1.819571
H     -1.805525   -0.400498   -1.351731
H      5.384037   -1.333171    2.941924
H      6.651232   -2.378142    2.512764
H     -4.448576   -4.983215    1.518610
H     -2.211264    3.217763    1.724844
H     -0.547834    1.227325    0.572989
H      4.063029    0.980203   -3.214859
H     -6.007975   -0.033707   -0.770594
H      1.131899   -0.310552    1.705348
H      0.105753   -4.474461   -1.630516
H     -0.647745   -1.880725   -3.580049
H     -5.109898    5.228135    3.031285
H     -1.836349   -6.972160    2.894794
