90

C    -11.998258   -1.611618   -3.226747
C     10.329657   -3.178790   -0.907859
C    -12.393762   -1.247115   -2.070054
C     10.820604   -2.335334   -0.238498
C     -0.416343    1.085235   -0.129445
C     -0.192609   -0.202067   -0.870910
C     -0.075274    0.895652    1.293904
C      1.118104   -0.508126   -1.422281
C     -0.989167    1.182092    2.263263
C      2.423137   -0.493000   -0.798093
C     -2.315556    1.689129    1.976576
C      2.974746    0.790547   -0.328696
C     -3.508293    0.879800    2.375701
C      4.041548    1.399893   -0.910403
C     -3.482746   -0.445706    1.698749
C      4.712023    0.849784   -2.039879
C     -4.706649   -1.281852    1.946601
C      6.135634    0.506730   -2.095748
C     -5.975999   -0.531627    1.448080
C      7.166197    1.510580   -1.884839
C     -5.848873   -0.210267    0.020875
C      7.394103    2.208462   -0.607144
C     -6.933821    0.546716   -0.600851
C      7.878526    1.351405    0.497466
C     -8.260702   -0.009534   -0.717340
C      7.067529    0.288616    1.100347
C     -9.135794   -0.360168    0.428473
C      7.988274   -0.471161    2.153441
C    -10.429355   -0.845998   -0.237544
C      9.107052   -0.997665    1.321461
C    -11.595574   -0.302289   -0.065014
C     10.370859   -0.703589    1.483020
C    -12.830232   -0.844133   -0.771200
C     11.436166   -1.276596    0.588168
O    -13.289986   -1.920814   -0.040738
O     11.910948   -0.313606   -0.304984
H    -11.666449   -1.894578   -4.182826
H      9.886078   -3.931610   -1.527888
H     -1.366439    1.546973   -0.353653
H      0.357459    1.800436   -0.587762
H     -0.558829   -1.077507   -0.192757
H     -1.009166   -0.232656   -1.665891
H      0.848419    0.522647    1.692470
H      1.018608   -1.579593   -1.886214
H      1.209187    0.167492   -2.371184
H     -0.712352    1.025667    3.315565
H      3.169757   -1.170361   -1.297575
H      2.293412   -1.103137    0.204510
H     -2.460768    2.140399    0.958323
H     -2.422154    2.652623    2.631032
H      2.571156    1.329196    0.525283
H     -3.501555    0.761001    3.488817
H     -4.410706    1.492218    2.158333
H      4.286317    2.352517   -0.411881
H     -3.179495   -0.381309    0.652887
H     -2.638970   -1.023105    2.206359
H      4.154007   -0.074548   -2.406083
H      4.517149    1.530413   -2.986447
H     -4.639675   -2.177901    1.328617
H     -4.866722   -1.445558    3.009741
H      6.316680    0.173236   -3.224717
H      6.418498   -0.466493   -1.617171
H     -6.771589   -1.264591    1.634721
H     -6.093649    0.358080    2.097090
H      8.167945    0.956023   -2.085399
H      7.224231    2.259078   -2.766637
H     -5.749109   -1.191815   -0.585133
H     -4.834242    0.276059   -0.211012
H      6.508912    2.789418   -0.252575
H      8.227963    2.965461   -0.818960
H     -6.582772    0.924723   -1.651503
H     -6.983195    1.553126   -0.005941
H      8.922139    0.920496    0.233842
H      8.197523    2.036020    1.380443
H     -8.295110   -0.928452   -1.418223
H     -8.887307    0.718469   -1.362239
H      6.246383    0.711567    1.735883
H      6.696431   -0.537959    0.507608
H     -9.399806    0.488535    1.080699
H     -8.817822   -1.249964    0.999229
H      7.351657   -1.269812    2.557696
H      8.313359    0.274154    2.887623
H    -10.331765   -1.708964   -0.890083
H      8.834912   -1.674663    0.524851
H    -11.720806    0.543344    0.576443
H     10.678547   -0.040436    2.261730
H    -13.602353   -0.041595   -0.826583
H     12.247022   -1.683635    1.204441
H    -13.194478   -1.743476    0.939982
H     11.537422   -0.469242   -1.203451
