60

C      1.098933    0.052160    3.136979
C     -0.690561    0.211475   -3.807856
C      6.405800    0.121564    0.748143
C      4.413037    1.327677    0.956235
C      6.973642    0.822132    1.767521
C      4.974393    2.055304    2.000804
C     -0.782829    0.050723    1.160026
C     -1.393166    0.099325   -1.139149
C     -8.103821   -0.178814    0.155988
C     -6.252308   -0.069733   -1.260437
C     -3.665000   -0.072025    1.825029
C      2.996596   -1.497659   -2.263411
C      5.099661    0.339028    0.293202
C     -1.761313    0.045209    0.202617
C      6.251569    1.806306    2.408737
C     -7.611186   -0.122862   -1.102424
C     -7.286101   -0.184123    1.281318
C     -5.019805   -0.129154    2.118787
C     -3.191625   -0.016148    0.546817
C     -5.379063   -0.071101   -0.199538
C      0.570389    0.109794    0.791161
C     -0.055012    0.157980   -1.491990
C      3.185015   -0.820311   -0.863185
C     -5.921061   -0.129699    1.088060
C      4.621267   -0.461576   -0.826470
C      0.962011    0.164203   -0.524553
O      3.916971   -2.546985   -2.326219
O      6.838195    2.528322    3.460696
O     -8.444964   -0.118129   -2.227683
O     -7.826876   -0.241163    2.519505
O     -5.401214   -0.179118    3.310513
O      5.309223   -1.712959   -0.772835
O      1.519355    0.110275    1.795740
O      0.304540    0.213791   -2.809403
O     -4.091011   -0.018872   -0.410484
O      2.283254    0.225015   -0.854559
H      0.547821   -0.897986    3.371101
H      0.387614    0.877612    3.401987
H      1.957938    0.134472    3.835065
H     -0.180185   -0.041674   -4.779246
H     -1.160038    1.215177   -3.924499
H     -1.455346   -0.572068   -3.649009
H      7.013508   -0.655343    0.261581
H      3.425678    1.566449    0.661020
H      8.003513    0.602116    2.076087
H      4.403443    2.835978    2.510351
H     -1.030053    0.009833    2.218278
H     -2.193384    0.092792   -1.863519
H     -9.179520   -0.222374    0.330234
H     -5.828406   -0.023798   -2.270764
H     -2.972056   -0.072856    2.658272
H      1.968164   -1.846278   -2.390384
H      3.240383   -0.783091   -3.057924
H      2.956458   -1.661493   -0.171621
H      4.969990   -0.023391   -1.801465
H      3.667749   -3.196838   -1.613264
H      7.787620    2.315310    3.735081
H     -8.784248    0.773765   -2.615690
H     -7.538476   -0.258764    3.431670
H      5.144901   -2.037403    0.168331
