60

C     -0.273589   -4.067460    0.008846
C      0.425772    3.125531   -0.378766
C      5.005260   -0.640432    0.519898
C      6.111910    0.997199   -0.737028
C      5.980181   -0.537949    1.521928
C      7.087504    1.113783    0.244230
C     -1.337626   -1.504149   -0.018917
C     -1.123185    0.823503   -0.143767
C     -7.882934    1.895090    0.392619
C     -5.654176    2.614001    0.167519
C     -4.220525   -1.212447    0.216544
C      3.336008   -2.360319   -1.791589
C      5.057923    0.118540   -0.612465
C     -1.953091   -0.296626   -0.020804
C      7.007074    0.339383    1.366810
C     -6.990202    2.924849    0.268932
C     -7.438979    0.550102    0.415027
C     -5.607349   -1.006557    0.327085
C     -3.387374   -0.154138    0.096712
C     -5.178604    1.326878    0.184576
C      0.035222   -1.656638   -0.130995
C      0.257323    0.701315   -0.257813
C      2.957304   -0.927965   -1.507857
C     -6.082723    0.279571    0.310039
C      4.064659    0.034110   -1.704786
C      0.841120   -0.531214   -0.252703
O      4.109219   -2.333208   -2.968177
O      8.019245    0.485590    2.344589
O     -7.404277    4.263494    0.244227
O     -8.362467   -0.426841    0.538973
O     -6.365090   -1.984505    0.436758
O      3.586635    1.334046   -1.887440
O      0.557801   -2.940143   -0.116208
O      1.036103    1.831649   -0.374771
O     -3.906649    1.042475    0.087506
O      2.192818   -0.727148   -0.361410
H      0.375756   -4.981397   -0.023363
H     -0.785765   -4.031474    1.008755
H     -1.020448   -4.076063   -0.812726
H     -0.277800    3.223584    0.468643
H     -0.150282    3.284885   -1.318396
H      1.186844    3.919949   -0.306075
H      4.173172   -1.350788    0.668319
H      6.225812    1.626661   -1.596734
H      5.891844   -1.155579    2.388273
H      7.918627    1.807015    0.145633
H     -1.932892   -2.408906    0.074123
H     -1.595334    1.793226   -0.147082
H     -8.936230    2.074754    0.475550
H     -4.949485    3.429639    0.069760
H     -3.892825   -2.228617    0.234096
H      3.766534   -2.925345   -0.984723
H      2.391931   -2.889703   -2.109576
H      2.219696   -0.698716   -2.369337
H      4.605589   -0.179860   -2.690933
H      4.221013   -3.230446   -3.346515
H      7.886431    1.178731    3.094558
H     -7.635288    4.728859   -0.632279
H     -8.420904   -1.379510    0.586977
H      4.233763    1.975729   -1.552237
