86

C    -11.095119   -0.451761    2.388043
C     12.725448    0.068075    4.359235
C    -11.200855    0.112106    1.154537
C     12.586912   -0.046150    3.071526
C     -0.929580    0.620167    1.162880
C     -0.818443    0.741235   -0.228164
C     -1.613986    0.003722    2.055982
C      0.323827    0.200908   -1.017225
C     -2.638704   -0.950305    1.469336
C      1.676604    0.443154   -0.483677
C     -4.066217   -0.749719    1.657331
C      2.149862    1.795372   -0.137730
C     -4.757207   -1.911311    0.867474
C      3.458061    1.698028    0.539282
C     -4.337781   -1.793698   -0.588686
C      4.666264    1.282337   -0.088124
C     -4.698974   -0.453593   -1.155402
C      4.864768   -0.043835   -0.694369
C     -6.210616   -0.266909   -1.313939
C      6.449351   -0.197411   -0.883436
C     -6.596118   -0.995594   -2.576890
C      6.968506   -0.311389    0.506902
C     -7.994423   -1.068510   -2.997786
C      8.432425   -0.281407    0.648482
C     -8.835620    0.187736   -2.951546
C      9.038689    1.041360    0.154289
C     -9.063315    0.535448   -1.444818
C     10.501722    1.080471    0.617741
C    -10.333090    0.514863   -1.067045
C     11.040731    0.010735    1.111861
C    -11.331315    0.680098   -0.086423
C     12.425178   -0.197027    1.621499
O    -11.510535    2.141915    0.134738
O     12.682149   -1.600313    1.392144
H    -10.999053   -0.886925    3.375268
H     12.848907    0.158950    5.346080
H     -0.140859    1.354149    1.706484
H     -1.755249    0.333970   -0.787764
H     -0.886570    1.850535   -0.581895
H     -1.468037    0.153110    3.104547
H      0.173008   -0.904262   -1.173327
H      0.214029    0.661201   -2.062758
H     -2.389287   -1.922755    2.105827
H     -2.284235   -1.291837    0.472788
H      2.032007   -0.403659    0.174311
H      2.349185    0.201859   -1.435173
H     -4.585892    0.135952    1.329034
H     -4.382807   -0.932883    2.728875
H      2.323344    2.443588   -1.057550
H      1.445757    2.428312    0.458539
H     -5.825107   -1.763738    0.958887
H     -4.430977   -2.825195    1.368112
H      3.209012    0.838144    1.360946
H      3.599193    2.537496    1.305780
H     -4.982422   -2.611062   -1.080436
H     -3.324725   -2.023335   -0.848580
H      4.800151    2.027283   -1.046825
H      5.552694    1.715490    0.472000
H     -4.300383   -0.395136   -2.233213
H     -4.216671    0.364687   -0.581532
H      4.635611   -0.911137   -0.071227
H      4.528199   -0.126304   -1.725042
H     -6.685651   -0.610958   -0.402280
H     -6.284619    0.845976   -1.421920
H      6.711015    0.649620   -1.460099
H      6.559815   -1.136434   -1.398988
H     -5.854960   -0.683996   -3.364781
H     -6.250307   -2.067911   -2.386242
H      6.554373    0.401684    1.257223
H      6.613625   -1.362028    0.846175
H     -8.589147   -1.859172   -2.497793
H     -7.995208   -1.324825   -4.112427
H      8.658674   -0.411669    1.755142
H      8.911539   -1.189848    0.144366
H     -8.260794    1.063310   -3.314427
H     -9.701295    0.112115   -3.543124
H      8.467628    1.868526    0.412353
H      9.130082    0.976092   -0.976891
H     -8.359242    0.797378   -0.755204
H     11.016469    2.035704    0.530540
H    -10.928433    0.097253   -2.065214
H     10.402927   -0.931047    1.148922
H    -12.327864    0.379144   -0.526595
H     13.135621    0.374321    1.037140
H    -10.530085    2.275207    0.506831
H     11.908409   -2.114400    1.807117
