79

C     -4.243839   -0.740883   -1.600719
C     -1.846478   -1.879376   -0.336719
C      4.003652   -0.179413    3.877587
C     -7.973913    2.124306   -3.248903
C      6.261228    1.510694   -2.305797
C      0.949452    2.391202    3.707708
C      2.823385   -1.693175   -2.092462
C     -6.693971    0.515673    1.328992
C      6.333582   -2.650629    0.608362
C     -8.064660    0.539245    1.296332
C      6.704731   -3.036790   -0.678471
C     -4.441564    0.849241    0.313715
C     -1.612895    0.579538   -0.552439
C     -6.600973    1.299660   -0.909051
C      0.149258    1.084034    1.169001
C      0.782090   -0.228044   -0.683515
C      6.112391   -0.436061   -0.177368
C     -3.876716   -0.470910   -0.160913
C     -2.400495   -0.540676    0.034549
C      4.150438   -0.715714    2.421674
C     -5.917530    0.890895    0.239782
C     -0.213744    0.464357   -0.033919
C      6.029204   -1.340796    0.887115
C     -8.680595    0.948596    0.147157
C      6.778265   -2.135157   -1.702513
C     -7.970383    1.334875   -0.975306
C      6.473359   -0.800923   -1.440902
C      1.415279    1.014349    1.679939
C      2.071046   -0.319510   -0.196251
C      5.634508   -0.849096    2.211578
C      2.399799    0.298071    0.986033
O    -10.071470    0.963532    0.137449
O      7.145100   -2.504138   -2.999435
O      6.296505    0.352320    2.528823
O     -8.693853    1.730100   -2.086822
O      6.530482    0.154281   -2.430421
O      1.732306    1.638143    2.861921
O      3.025889   -1.021884   -0.880649
O      3.654340    0.278577    1.579224
H     -3.605332   -0.155656   -2.291490
H     -5.314943   -0.675776   -1.772266
H     -3.962308   -1.817826   -1.802390
H     -1.926910   -2.018013   -1.447445
H     -0.797588   -1.984151    0.020976
H     -2.442051   -2.654544    0.154767
H      4.662053   -0.731471    4.555038
H      4.217051    0.890085    3.896204
H      2.962264   -0.424147    4.180680
H     -7.217231    2.896998   -2.999914
H     -8.629825    2.561681   -4.024548
H     -7.407841    1.244472   -3.646386
H      5.148905    1.653381   -2.415063
H      6.743311    2.116161   -3.110436
H      6.548565    1.935872   -1.347468
H      0.621410    1.720086    4.554816
H      1.476016    3.289477    4.109213
H      0.011355    2.694852    3.207394
H      3.815140   -1.995111   -2.528389
H      2.308176   -1.105857   -2.862131
H      2.233919   -2.645713   -1.956079
H     -6.187899    0.193368    2.240046
H      6.286332   -3.378501    1.391432
H     -8.645966    0.239353    2.168204
H      6.943605   -4.084491   -0.884622
H     -4.058027    1.695673   -0.301296
H     -4.140987    1.045996    1.356956
H     -1.584870    0.453530   -1.659411
H     -2.038512    1.576922   -0.342981
H     -6.048557    1.602849   -1.788464
H     -0.668385    1.624565    1.665396
H      0.498489   -0.714557   -1.624846
H      5.873699    0.624288   -0.001404
H     -4.340534   -1.274709    0.447200
H     -2.244434   -0.449587    1.161407
H      3.652741   -1.683300    2.370229
H      6.009587   -1.585789    2.978283
H    -10.547095    1.255659   -0.693252
H      7.164930   -1.783378   -3.698306
H      6.478537    0.428797    3.497644
