51

C      0.751913   -1.588674    1.032266
C     -1.166321    0.371282    1.831358
C      5.885396    2.264194    0.532761
C     -5.939344   -1.243567    1.693900
C      3.375055   -1.799161   -0.886986
C      4.690549   -2.193363   -0.765893
C      1.585414   -0.035422   -0.748333
C     -1.351183   -0.406660   -0.544697
C     -2.975313    1.124822   -1.594738
C      3.978851    0.388522   -0.246731
C     -3.777975   -0.320699    0.107656
C      0.830604   -0.185824    0.543588
C     -0.550474    0.398739    0.453752
C      2.991281   -0.500313   -0.630078
C     -2.747156    0.134178   -0.663631
C      5.659060   -1.275587   -0.378560
C     -4.219605    1.678084   -1.776550
C      5.305050    0.033374   -0.114230
C     -5.038539    0.215157   -0.051596
C     -5.253258    1.198851   -0.979694
O      6.994588   -1.630482   -0.244440
O     -4.479140    2.681007   -2.710552
O     -6.520167    1.729435   -1.131696
O      6.292359    0.932840    0.271696
O     -6.121122   -0.232576    0.728270
H      0.700861   -2.343632    0.222759
H     -0.105020   -1.799157    1.699580
H      1.665997   -1.844863    1.639369
H     -1.663769   -0.561376    2.090792
H     -0.384182    0.540262    2.626360
H     -1.943977    1.183827    1.917639
H      6.810936    2.835298    0.787982
H      5.460352    2.744302   -0.380192
H      5.140791    2.313858    1.353010
H     -5.381397   -2.110659    1.304418
H     -6.954928   -1.541488    2.042572
H     -5.437740   -0.800670    2.587956
H      2.631956   -2.517376   -1.187958
H      5.020600   -3.212563   -0.962673
H      1.132705   -0.541656   -1.602484
H      1.627855    1.061846   -0.971048
H     -0.872772   -0.287189   -1.534715
H     -1.381585   -1.474881   -0.276066
H     -2.148875    1.480246   -2.203837
H      3.718878    1.432880   -0.032098
H     -3.624254   -1.092486    0.837638
H      1.367607    0.415436    1.319035
H     -0.512673    1.479440    0.134597
H      7.348739   -2.550135   -0.412646
H     -3.698063    2.996028   -3.265124
H     -6.718564    2.456554   -1.805699
