49

C     -2.176023   -3.143450   -0.845073
C      0.512698   -2.615701   -1.374641
C     -4.558199    3.671358    0.770178
C      3.717223    0.960028   -2.611449
C     -2.763174   -0.784178   -0.752843
C      1.994077   -0.999653    1.652074
C     -2.964608    1.424633    0.287381
C      2.189232   -0.145804   -0.517758
C     -0.437434    1.349607    1.299172
C     -1.805029   -1.761800   -1.326923
C     -0.358149   -1.427823   -1.083102
C     -2.178921    0.300018    0.040786
C      1.374867   -0.677455    0.443482
C     -0.903883    0.271610    0.556036
C     -1.200505    2.467835    1.551945
C      3.341091   -0.784526    1.835315
C     -2.476767    2.481173    1.028450
C      3.536810    0.084034   -0.373678
C     -0.082536   -0.921576    0.287653
C      4.115081   -0.252056    0.848850
O     -0.655249    3.484687    2.296683
O      3.931098   -1.117635    3.056650
O      5.472097   -0.014966    0.978855
O     -3.243882    3.618299    1.289164
O      4.311865    0.629432   -1.394031
H     -1.464169   -3.920886   -1.103962
H     -3.152180   -3.399066   -1.316389
H     -2.388145   -3.087355    0.256739
H      1.485401   -2.239692   -1.752365
H      0.731182   -3.235370   -0.488228
H      0.085100   -3.213227   -2.224254
H     -4.534165    3.445677   -0.302821
H     -5.232128    2.951470    1.289706
H     -4.973350    4.685139    0.965685
H      3.116857    0.097471   -3.009581
H      3.014125    1.806970   -2.469192
H      4.512661    1.180468   -3.338485
H     -3.415124   -0.338493   -1.555412
H     -3.507497   -1.296561   -0.071231
H      1.388214   -1.420249    2.434300
H     -3.985785    1.466811   -0.115440
H      1.736088    0.124006   -1.484520
H      0.569757    1.293947    1.689279
H     -1.941151   -1.779640   -2.437921
H     -0.103813   -0.635041   -1.815478
H     -0.368663   -1.713898    1.037867
H     -1.192960    4.315141    2.496443
H      4.903577   -0.986056    3.252414
H      6.024388   -0.197659    1.777229
