79

C     -4.415220   -4.012359    0.869701
C     -3.134166   -1.855902    2.259173
C      4.132397   -0.081719    2.803889
C     -3.210125    2.237155   -2.798325
C      7.200599    4.843654   -1.543418
C      0.254345    1.605973   -2.077947
C      1.507906   -3.541508    2.937950
C     -6.845258   -0.444689   -0.346813
C      5.646707    0.300064    0.156540
C     -7.248531    0.865116   -0.436627
C      6.792316    0.090076   -0.619583
C     -5.318507   -2.290004   -0.738494
C     -2.407341   -2.316400   -0.084434
C     -4.824484    0.080372   -1.486535
C     -0.584628   -0.644398   -0.574486
C     -0.228753   -2.330154    1.038824
C      5.750271    2.623634   -0.227577
C     -4.720757   -2.577811    0.586447
C     -3.474589   -1.701615    0.794347
C      3.273470    0.566535    1.731882
C     -5.618332   -0.853496   -0.875578
C     -1.056172   -1.730972    0.115793
C      5.125503    1.540737    0.355963
C     -6.426535    1.776853   -1.056875
C      7.415427    1.175198   -1.202563
C     -5.204523    1.400354   -1.590873
C      6.887510    2.454810   -1.003527
C      0.685758   -0.117301   -0.390423
C      1.033509   -1.827640    1.240672
C      3.915144    1.793742    1.180821
C      1.499391   -0.724662    0.533183
O     -6.833253    3.112749   -1.150370
O      8.550943    1.000688   -1.976025
O      3.002543    2.581321    0.533746
O     -4.453689    2.385625   -2.194128
O      7.552907    3.485542   -1.609429
O      1.105012    0.995348   -1.133266
O      1.875106   -2.431209    2.175094
O      2.756295   -0.288083    0.788571
H     -3.491581   -4.211664    1.424353
H     -5.235203   -4.475248    1.498959
H     -4.465339   -4.628284   -0.079216
H     -3.695957   -1.006176    2.771822
H     -3.553235   -2.753711    2.736723
H     -2.080561   -1.635651    2.502367
H      5.174587    0.350367    2.807089
H      4.198884   -1.154001    2.643908
H      3.761417    0.107399    3.836365
H     -3.312343    2.197743   -3.905400
H     -2.663320    1.328684   -2.489083
H     -2.608237    3.151987   -2.546696
H      6.761204    5.038854   -0.549897
H      6.473984    5.039873   -2.377342
H      8.064575    5.517572   -1.723360
H     -0.189684    0.847724   -2.743927
H     -0.601123    2.127555   -1.564257
H      0.816642    2.310668   -2.738738
H      0.503218   -3.348567    3.411207
H      2.207322   -3.647191    3.802472
H      1.410497   -4.456165    2.337872
H     -7.489040   -1.174066    0.142800
H      5.178229   -0.552327    0.592128
H     -8.219007    1.160763   -0.011904
H      7.190389   -0.903109   -0.766280
H     -4.613895   -2.557859   -1.578219
H     -6.217815   -2.919033   -0.922168
H     -2.686026   -2.096989   -1.133717
H     -2.380073   -3.423366   -0.026311
H     -3.851997   -0.218987   -1.915160
H     -1.224423   -0.152084   -1.312446
H     -0.537462   -3.199433    1.617583
H      5.355990    3.640977   -0.087660
H     -5.403701   -2.242806    1.430640
H     -3.733319   -0.686726    0.575186
H      2.370225    0.956573    2.322792
H      4.256753    2.392596    2.079553
H     -7.725414    3.355631   -0.754065
H      8.977680    1.817267   -2.385514
H      3.318962    2.955589   -0.328000
