51

C      0.972451    1.261524   -2.082537
C     -1.054699   -0.813394   -1.835681
C      5.345311    0.515219    2.796548
C     -5.249176    2.523228    1.660002
C      3.703907   -0.433829   -1.845815
C      5.071804   -0.199018   -1.956266
C      1.588162   -0.643630   -0.581813
C     -1.147975   -0.392440    0.606887
C     -3.166225   -1.773924    0.153361
C      3.793166   -0.091979    0.483355
C     -3.470779    0.436357    0.919521
C      0.733450    0.569053   -0.736952
C     -0.714203    0.133203   -0.731769
C      3.034359   -0.387865   -0.640604
C     -2.621299   -0.581530    0.558556
C      5.805422    0.093076   -0.826495
C     -4.509800   -1.994647    0.092599
C      5.165624    0.146113    0.390533
C     -4.843060    0.242002    0.868184
C     -5.371580   -0.963780    0.458179
O      7.160124    0.330689   -0.899581
O     -4.983657   -3.220398   -0.324916
O     -6.735179   -1.205230    0.390490
O      5.904812    0.437300    1.506580
O     -5.726755    1.251288    1.226575
H      1.077016    0.543696   -2.895413
H      1.856552    1.915279   -1.943223
H      0.126297    1.930278   -2.337522
H     -2.166040   -0.860404   -1.904998
H     -0.682281   -1.844188   -1.661933
H     -0.693227   -0.462427   -2.803027
H      4.620625   -0.318196    2.923041
H      4.888766    1.509679    2.993374
H      6.109416    0.370999    3.593991
H     -4.593208    2.418391    2.548871
H     -4.661040    3.013700    0.844813
H     -6.124654    3.159446    1.882123
H      3.142293   -0.664861   -2.760187
H      5.582168   -0.240247   -2.919354
H      1.287081   -1.407316   -1.327544
H      1.367671   -1.082857    0.412524
H     -0.852972    0.346364    1.374816
H     -0.636710   -1.353451    0.814915
H     -2.487508   -2.588148   -0.135376
H      3.265449   -0.057690    1.419459
H     -3.067533    1.383408    1.241679
H      0.868989    1.285865    0.097272
H     -1.317586    1.070041   -0.911373
H      7.738946    0.547459   -0.106151
H     -5.979736   -3.395665   -0.373986
H     -7.352980   -0.456540    0.655900
