49

C      4.669244    1.442318   -1.800295
C      5.268846   -0.342117   -0.182378
C     -4.100359    1.383612    0.115364
C     -2.895922   -2.101854    0.220606
C     -3.792959   -1.001897   -0.218717
C     -1.597555   -1.751811    0.860250
C      2.235854    0.985317   -0.442616
C      1.112374   -1.598358   -0.231669
C     -1.208168    1.703414   -0.261854
C     -3.198266   -0.138835    1.884798
C      4.345713    0.033220   -1.365917
C      2.973293   -0.136660   -0.849152
C      0.977746    0.787731    0.049674
C      0.414342   -0.484393    0.156128
C      2.412350   -1.394086   -0.740811
C      0.043446    1.811462    0.570176
C     -1.865299    0.336628   -0.316506
C     -1.182637    0.555412    1.808583
C     -3.143225    0.234969    0.467109
C     -0.974104   -0.450198    0.670122
O      3.084352   -2.523685   -1.126739
O     -1.974186   -0.109845    2.621072
O     -0.104703    1.272763    1.905929
H      3.830934    2.054230   -2.109832
H      5.388368    1.440794   -2.660303
H      5.184511    1.943035   -0.955135
H      5.103229    0.405915    0.641284
H      4.923367   -1.301155    0.199949
H      6.313346   -0.403476   -0.491867
H     -3.961084    1.738132   -0.898384
H     -5.132322    0.952094    0.236188
H     -4.057625    2.184599    0.903797
H     -3.471206   -2.720638    0.966729
H     -2.808841   -2.798062   -0.669202
H     -3.810484   -0.835425   -1.324179
H     -4.813960   -1.055061    0.212081
H     -1.596723   -1.947505    1.985920
H     -0.934273   -2.566551    0.514196
H      2.651190    1.977974   -0.509402
H      0.732978   -2.596631   -0.167673
H     -0.828720    1.881270   -1.316467
H     -1.923312    2.536901   -0.109244
H     -3.769098    0.694900    2.410733
H     -3.780051   -1.029606    2.175227
H      4.585834   -0.652081   -2.172385
H      0.382930    2.822786    0.570969
H     -1.837489   -0.126521   -1.288365
H     -1.874577    1.443588    1.591951
H      4.002902   -2.556609   -1.529744
