40

C     -1.778494   -2.962113    0.026514
C     -1.037982    1.922809    1.529353
C      3.476335   -0.511914   -0.572581
C      2.785862   -0.973143    1.744981
C     -3.324175   -1.174788   -0.763160
C     -3.105034    0.306091   -0.926733
C      0.314691   -0.779063    0.169828
C      0.043868    2.184664   -0.713680
C     -1.907839   -1.720008   -0.789478
C     -1.195411    1.871019    0.026511
C     -1.766489    0.538925   -0.394959
C     -1.071425   -0.599272   -0.314471
C      1.260257    0.149490    0.132347
C      2.654472   -0.009142    0.614592
C      1.296671    1.544027   -0.355656
O      2.137705    1.555953   -1.485916
O      3.017055    1.287182    0.941093
O      2.048734    2.113316    0.664324
H     -1.108798   -3.705561   -0.494226
H     -1.331664   -2.809179    1.019832
H     -2.759197   -3.460766    0.180839
H     -0.406164    1.134176    1.934214
H     -0.744649    2.944724    1.792730
H     -2.074857    1.784490    1.951893
H      2.825637   -0.815816   -1.419892
H      4.105667   -1.373444   -0.308123
H      4.125351    0.310634   -0.936121
H      2.877254   -2.003002    1.291046
H      1.896283   -0.954459    2.412559
H      3.732032   -0.784661    2.261962
H     -3.860910   -1.602943   -1.643443
H     -3.821282   -1.449913    0.177701
H     -3.191592    0.521830   -2.019821
H     -3.851370    0.878817   -0.338328
H      0.574663   -1.742278    0.579937
H     -0.151514    2.022990   -1.797663
H      0.196292    3.298167   -0.637293
H     -1.590623   -1.957543   -1.834667
H     -1.967128    2.623865   -0.235801
H      2.677767    2.395834   -1.470246
