44

C     -2.086709    2.841933   -0.831623
C     -0.187832   -1.768237    2.503270
C      1.097174   -1.023179    2.785482
C     -1.208051   -0.736788    2.085594
C     -0.539773   -1.445659   -2.629452
C      0.679462   -1.843896   -3.189388
C      1.647170   -0.593234    1.446950
C      1.200341    1.521077    0.277462
C      0.064255    2.467239   -0.029167
C     -1.885222   -0.400923   -0.850438
C      1.765553   -0.958390   -1.294320
C     -0.575003   -0.810555   -1.409707
C      1.850821   -1.592583   -2.503913
C     -0.681161    0.340953    1.220611
C      0.572789   -0.558972   -0.727396
C     -1.632847    0.751399    0.099404
C      0.653392    0.118425    0.594739
N     -1.062925    1.828902   -0.644162
O      3.089401   -1.972318   -3.025454
Cl     0.685456    0.000000    0.000000
H     -2.592004    2.747407   -1.812933
H     -2.857953    2.718683   -0.043778
H     -1.671949    3.873061   -0.685868
H     -0.082093   -2.534043    1.720424
H     -0.530277   -2.249950    3.435631
H      1.802253   -1.748275    3.242915
H      0.891006   -0.191504    3.453991
H     -1.634741   -0.327780    3.050319
H     -2.069479   -1.311276    1.653745
H     -1.407495   -1.668063   -3.205663
H      0.728320   -2.341748   -4.141724
H      2.566206    0.008996    1.601416
H      2.010193   -1.547070    0.960527
H      1.678591    1.887997    1.214887
H      1.971784    1.471417   -0.490681
H      0.460639    3.208241   -0.759094
H     -0.263308    3.049418    0.863576
H     -2.347864   -1.278402   -0.362199
H     -2.574518   -0.049945   -1.625246
H      2.724835   -0.778131   -0.783348
H     -0.592161    1.269205    1.860489
H     -2.599225    0.990898    0.588770
H      3.628405   -1.364330   -3.614652
H     -0.685456    0.000000    0.000000
