44

C     -1.732331    3.295150   -0.573797
C     -2.302383   -1.532419    1.225376
C     -1.445474   -2.435368    0.353369
C     -1.397864   -0.402633    1.677463
C      2.903696    0.066664    1.211549
C      3.594715   -1.092796    0.944575
C     -1.109221   -1.667910   -0.889666
C     -0.386767    0.441568   -1.849089
C     -0.142476    1.878593   -1.702956
C      0.984415    1.605051    1.080806
C      1.703581   -1.797495   -0.334954
C      1.621054    0.310508    0.717880
C      2.968772   -2.031275    0.155485
C     -1.132477    0.416667    0.442178
C      1.001282   -0.624493   -0.066395
C     -0.444273    1.703615    0.684249
C     -0.353131   -0.388124   -0.597791
N     -0.553011    2.507254   -0.501275
O      3.639868   -3.215086   -0.133765
Cl     0.687575    0.000000    0.000000
H     -1.873617    3.702428   -1.574859
H     -2.639121    2.781279   -0.174932
H     -1.590754    4.184667    0.108141
H     -3.077110   -1.092011    0.555799
H     -2.758896   -2.072372    2.069072
H     -2.069944   -3.295218    0.059218
H     -0.579749   -2.731893    0.948549
H     -1.974057    0.220604    2.373379
H     -0.452345   -0.792361    2.122715
H      3.402169    0.802765    1.834101
H      4.595647   -1.254052    1.344865
H     -2.101300   -1.322419   -1.311228
H     -0.637473   -2.229307   -1.688761
H      0.387441    0.009548   -2.548143
H     -1.357117    0.262705   -2.370579
H     -0.650289    2.415244   -2.558827
H      0.945194    2.095355   -1.857565
H      1.573610    2.393379    0.567823
H      1.114172    1.820937    2.176110
H      1.217029   -2.532931   -0.951400
H     -2.117999    0.627574   -0.022950
H     -1.008865    2.245531    1.497303
H      4.235398   -3.276924   -0.961264
H     -0.687575    0.000000    0.000000
