91

C     -9.830782   -0.716032    4.210644
C     10.586106   -2.088165    3.433083
C     -9.908678   -0.178260    2.795035
C     11.429535    1.609865    0.051244
C     12.249735    0.944758    0.951362
C     -5.837835   -2.101832   -3.007931
C     -3.058868    2.122268    0.970563
C     -1.188481    1.244927   -3.696318
C     -7.109600   -2.295896   -2.594849
C     -4.318074    1.759911    1.397734
C     -4.985672   -1.194077   -2.356671
C     10.101178    1.250378    0.005651
C     11.700467   -0.034548    1.749298
C     -2.546779    1.599089   -0.176145
C     -8.997647   -1.825926   -1.072733
C      3.255193    0.277470   -0.193163
C     -8.659090   -0.688510    2.075651
C     -0.413485    2.324173   -3.055937
C      4.612181   -0.080497   -0.711952
C     -9.543739   -0.790794   -0.156663
C      5.870758    0.261331    1.263673
C      6.545893   -1.438390   -0.314269
C      7.281840    0.079053    1.770784
C      7.665326   -0.428899   -0.627269
C     -1.744831    0.122727   -2.938934
C     -6.358775    0.455660    1.285286
C      1.165859    1.297328   -1.325358
C     -7.601186   -1.587082   -1.502912
C     -5.053408    0.870947    0.665793
C      2.497340    0.881119   -1.332692
C     -5.475343   -0.506031   -1.288757
C      9.544896    0.271831    0.800029
C     -7.364226    0.145023    0.225768
C     10.358297   -0.386735    1.692339
C     -3.276381    0.679964   -0.961370
C     -6.800218   -0.696430   -0.850404
C     -4.558935    0.331017   -0.498607
N      2.931358    1.149300   -2.569066
N      1.956772    1.684340   -3.267987
N      5.484185   -0.676161    0.263519
N     -8.577327   -0.274428    0.738825
N      8.176385   -0.020195    0.657750
N      0.845292    1.782340   -2.502058
O      9.810142   -1.374289    2.499285
O     -2.755284    0.189368   -2.075205
H     -8.950127   -0.314083    4.757031
H     -9.706789   -1.834719    4.203682
H    -10.717570   -0.418724    4.800545
H     11.298560   -1.463285    3.994144
H      9.914894   -2.620519    4.161365
H     11.184205   -2.847266    2.871099
H    -10.823573   -0.615587    2.339723
H     -9.931118    0.910066    2.860281
H     11.796182    2.390289   -0.606733
H     13.301264    1.209319    1.006134
H     -5.419401   -2.640980   -3.863481
H     -2.457835    2.828866    1.539897
H     -0.481662    0.790001   -4.478867
H     -1.944937    1.749900   -4.365722
H     -7.788694   -2.985531   -3.072121
H     -4.704067    2.184560    2.302725
H     -4.007260   -1.091452   -2.696754
H      9.473416    1.794674   -0.716227
H     12.336757   -0.560985    2.459133
H     -1.585054    1.834765   -0.553421
H     -9.004600   -2.839486   -0.586885
H     -9.623516   -1.947491   -1.992383
H      3.273958    0.958786    0.661121
H      2.663511   -0.611355    0.112494
H     -7.824946   -0.272436    2.671770
H     -8.719224   -1.812261    2.181516
H     -0.924443    3.005514   -2.385223
H     -0.070872    3.002131   -3.912690
H      4.514111   -0.766567   -1.600598
H      5.075958    0.840653   -1.128060
H    -10.450097   -1.198225    0.323050
H     -9.912221    0.057923   -0.806918
H      5.137992    0.274717    2.108214
H      5.829967    1.294393    0.829861
H      6.240694   -1.869997   -1.266979
H      7.009438   -2.158157    0.378743
H      7.311634   -0.835230    2.418580
H      7.528476    0.974948    2.403320
H      7.224694    0.416767   -1.193985
H      8.459380   -0.879086   -1.234043
H     -2.012092   -0.676121   -3.731723
H     -0.846183   -0.423009   -2.456226
H     -6.072163   -0.424542    1.909752
H     -6.690259    1.249064    1.973191
H      0.537900    1.212308   -0.456107
H     -7.548379    1.176437   -0.273611
