49

C      4.865679    1.062093    0.998968
C      5.170623   -0.111974   -1.096224
C     -3.996724    0.693645    1.535286
C     -2.822496   -2.020891   -0.701072
C     -3.502041   -1.418788    0.469810
C     -1.746471   -1.227704   -1.367019
C      2.275394    0.922189    0.284716
C      1.009357   -1.394750   -0.696883
C     -1.039593    1.334462    1.221255
C     -3.599643    0.491429   -0.909572
C      4.472572   -0.205577    0.266737
C      3.022230   -0.235458    0.026377
C      0.958151    0.843781    0.036673
C      0.291860   -0.276505   -0.447437
C      2.392133   -1.359591   -0.452119
C     -0.053229    1.945318    0.236390
C     -1.691986    0.044610    0.813984
C     -1.597090    1.257630   -1.071048
C     -3.129465    0.092938    0.416892
C     -1.138512   -0.121775   -0.624895
O      3.151395   -2.488277   -0.696251
O     -2.629977    0.986918   -1.836932
O     -0.535248    2.014887   -1.112536
H      5.935362    0.969010    1.264057
H      4.287914    1.218581    1.915369
H      4.763598    1.930825    0.299405
H      5.755952   -1.027806   -1.314589
H      4.412477    0.024832   -1.895619
H      5.820687    0.799402   -1.161757
H     -5.029719    0.730796    1.126467
H     -3.708710    1.711293    1.787843
H     -3.952189    0.011436    2.417763
H     -2.452677   -3.040049   -0.388658
H     -3.597515   -2.242542   -1.477281
H     -3.086715   -1.833643    1.436075
H     -4.601518   -1.514359    0.420217
H     -2.135543   -0.776537   -2.346494
H     -1.037274   -1.968300   -1.777252
H      2.687934    1.834518    0.658167
H      0.625548   -2.323471   -1.060194
H     -1.716270    2.084364    1.664533
H     -0.363426    1.057240    2.093776
H     -4.247057    1.415505   -0.759067
H     -4.273660   -0.194804   -1.450032
H      4.838966   -1.074133    0.832859
H      0.334951    2.857675    0.611773
H     -1.358247   -0.820424    1.367190
H     -2.152266    1.904193   -0.307497
H      4.122477   -2.562212   -0.549184
