28

C     -1.638301    0.561903   -0.511844
C      3.165878    1.862914    0.274294
C      1.226598   -1.539724    0.518859
C     -3.010485    0.656324   -0.433737
C      0.470690   -0.440251   -0.136422
C      2.326325    0.800216   -0.341508
C     -3.698956   -0.338590    0.207857
C     -1.655437   -1.415118    0.632468
F     -3.700282    1.705961   -0.973683
N     -4.986952   -0.274697    0.295478
N     -2.992665   -1.354562    0.726764
N     -0.938713   -0.464430    0.013699
O      4.408742    1.859959   -0.367122
O     -0.940191   -2.471590    1.173938
O      1.052214    0.763615    0.276711
S      2.915066   -0.876465    0.146744
Cl     0.684228    0.000000    0.000000
H     -1.137023    1.387534   -1.037502
H      3.275434    1.656070    1.359306
H      2.699415    2.833479    0.098322
H      1.078203   -2.495693   -0.000235
H      1.172655   -1.572729    1.604058
H      0.693112   -0.504599   -1.241704
H      2.196738    0.884305   -1.417565
H     -5.499895    0.530603   -0.120358
H      4.648156    0.958547   -0.714543
H     -1.130327   -2.712985    2.138105
H     -0.684228    0.000000    0.000000
