82

C     -8.757055    0.264049   -2.430561
C      9.718363    2.495667   -0.693735
C     -8.031888   -0.955065   -1.948832
C      9.328587   -2.446988   -1.493704
C     10.399087   -1.600539   -1.431692
C      2.308570    0.239890    1.919174
C      0.820434    0.397159    2.017859
C     -4.047595   -2.898790    1.835911
C     -2.340911    3.038890    0.007453
C     -5.414456   -2.931930    1.939897
C     -3.700502    2.909105    0.104994
C     -3.372932   -1.728266    1.455342
C      8.061762   -1.943208   -1.314635
C     10.194049   -0.256625   -1.190991
C     -1.534183    1.970731    0.283619
C     -7.606260   -1.880608    1.790995
C     -6.970983   -0.612040   -0.923526
C      2.810414    0.759441    0.605776
C     -8.330396   -0.800127    1.067822
C      4.621327   -0.733580    0.446922
C      4.735723    1.463433   -0.530399
C      5.323617   -0.936399   -0.908740
C      6.261050    1.312879   -0.683358
C      0.134805   -0.391713    0.941618
C     -5.747864    1.708067    0.525685
C     -6.127344   -1.810096    1.669677
C     -4.277193    1.703748    0.481980
C     -4.108290   -0.613325    1.188376
C      7.791124   -0.630050   -1.073996
C     -6.391592    0.500099    1.058319
C      8.893296    0.220641   -1.013730
C     -2.068445    0.733148    0.670088
C     -5.499292   -0.635266    1.291689
C     -3.450964    0.634606    0.759060
N      4.256837    0.646590    0.533421
N     -7.505832    0.022712    0.237578
N      6.495849   -0.109046   -0.892932
O      8.653361    1.561458   -0.771209
O     -1.251209   -0.320308    0.936841
H     -8.171748    1.190354   -2.283345
H     -8.955520    0.221629   -3.542043
H     -9.756615    0.296130   -1.949986
H      9.231664    3.489509   -0.470332
H     10.163573    2.541102   -1.714659
H     10.458992    2.232567    0.076563
H     -8.706967   -1.753090   -1.610742
H     -7.482654   -1.376099   -2.837923
H      9.470493   -3.486562   -1.678834
H     11.433936   -1.953311   -1.568119
H      2.527900   -0.863003    2.013683
H      2.834819    0.719176    2.784002
H      0.564810   -0.088593    3.034630
H      0.520780    1.441167    2.050415
H     -3.449325   -3.778503    2.045870
H     -1.874839    3.983079   -0.289406
H     -5.896658   -3.857275    2.237233
H     -4.311559    3.765556   -0.118406
H     -2.323312   -1.762842    1.390884
H      7.246377   -2.680942   -1.378978
H     11.019346    0.466689   -1.130948
H     -0.460668    2.012132    0.188137
H     -7.926319   -2.906965    1.447852
H     -7.860499   -1.860516    2.870644
H     -6.304709    0.148236   -1.423150
H     -6.352340   -1.491828   -0.757214
H      2.351208    0.133230   -0.210254
H      2.432775    1.774456    0.454479
H     -9.195419   -1.241251    0.527653
H     -8.793880   -0.113200    1.830168
H      5.419841   -0.957879    1.204599
H      3.782183   -1.432175    0.554462
H      4.207959    1.403439   -1.477714
H      4.623141    2.544038   -0.205683
H      5.491639   -2.012887   -1.053225
H      4.650647   -0.527122   -1.711797
H      6.643966    1.663220    0.308455
H      6.517556    1.945369   -1.530511
H      0.519957   -1.436061    1.030430
H      0.454663   -0.073604   -0.083070
H     -6.032371    2.592822    1.168631
H     -6.106384    2.011224   -0.491711
H     -6.879505    0.730241    2.061147
