46

C     -2.863519    2.471964   -0.420363
C     -4.620152    1.016470   -1.224042
C      6.597679    0.580193    0.953963
C      1.755978   -2.188045   -1.475935
C     -0.326526    0.840866    0.398661
C      3.126329   -2.252465   -1.374649
C      1.042141    0.770140    0.495579
C     -0.318738   -1.082731   -0.931859
C     -4.146868   -1.474435    0.984632
C      4.061273    0.631693    0.721646
C     -3.881595   -0.574202    2.912798
C     -3.096829    1.165174   -1.070470
C      1.053595   -1.174128   -0.848880
C     -1.045965   -0.082608   -0.317107
C      1.731177   -0.225132   -0.119816
C      3.806346   -1.285427   -0.632826
C      3.127802   -0.267431   -0.000379
C     -3.210989   -0.452903    0.806652
C      5.240719   -1.102901   -0.354038
C     -2.523571   -0.054018   -0.451136
N     -4.539819   -1.536219    2.249037
N     -3.083607    0.073846    2.038669
N      5.346329    0.056270    0.459299
O      6.165287   -1.847343   -0.770908
O     -2.843578   -1.104745   -1.371264
H     -1.928232    2.991486   -0.706297
H     -3.056025    2.436059    0.670979
H     -3.663586    3.199337   -0.781337
H     -4.944194    1.908092   -1.805643
H     -5.135355    1.047440   -0.262414
H     -4.864165    0.138473   -1.843653
H      7.451550    0.205294    0.338825
H      6.754389    0.113191    1.965351
H      6.609001    1.667209    1.055201
H      1.201279   -2.917468   -2.039797
H     -0.827135    1.656484    0.907909
H      3.707110   -3.028667   -1.850367
H      1.617285    1.510922    1.069504
H     -0.829302   -1.863607   -1.526810
H     -4.484943   -2.117914    0.155749
H      3.819469    0.746906    1.788260
H      4.035017    1.619008    0.179728
H     -3.995696   -0.375688    3.981137
H     -2.753850    1.277254   -2.144603
H     -2.486382    0.860347    2.364375
H     -2.779135   -1.976043   -0.948477
