57

C     -0.218063   -0.061040   -5.219469
C     -1.121329    0.730474   -4.543994
C      0.552988   -0.933109   -4.489438
C     -1.273906    0.675984   -3.174874
C      2.542155   -1.817972    2.297919
C      2.923563   -0.480577    0.399940
C      0.534578    1.778863   -1.033280
C     -0.165301    0.802165    1.038144
C      0.936154    2.938248   -0.367690
C      0.231299    1.956297    1.724768
C      3.627410   -1.200780    2.915654
C      3.998277    0.135237    1.004654
C     -4.672795   -0.857372    1.445241
C     -3.479829   -0.575491    2.327373
C      1.022715   -2.140660    0.413385
C     -3.604268    1.112018    0.340543
C     -2.602182   -1.249903   -0.052209
C      2.170526   -1.463729    1.019382
C      0.003419    0.763846   -0.310890
C      0.773143    2.996792    1.000414
C      4.366840   -0.225330    2.291134
C      0.438651   -1.030734   -3.086923
C     -0.459550   -0.233151   -2.482927
C      1.122493   -1.854768   -2.108588
C     -3.356874   -0.282944    0.894744
C     -0.417529   -0.503118   -1.016528
Cl     1.253821    4.421449    1.908465
N      0.592600   -1.520385   -0.853205
N      5.469943    0.411571    2.912447
O     -4.075644    1.926828    1.360447
O      2.034065   -2.715671   -2.376363
O      6.170320    1.384481    2.250521
O      5.802047    0.082304    4.062951
O     -1.525396   -0.900231   -0.517191
H     -0.098595   -0.018347   -6.289460
H     -1.758708    1.438969   -5.079875
H      1.299394   -1.604785   -4.938851
H     -1.994760    1.313174   -2.680068
H      2.025171   -2.572077    2.868667
H      2.677002   -0.177269   -0.594802
H      0.677992    1.760410   -2.124053
H     -0.588066   -0.010209    1.635393
H      1.370684    3.785250   -0.907018
H      0.095374    1.979950    2.788364
H      3.936156   -1.475762    3.937940
H      4.572642    0.902892    0.501035
H     -5.534496   -0.185596    1.595027
H     -4.943006   -1.879505    1.176924
H     -2.999978   -1.465422    2.743374
H     -3.558948    0.318640    3.013885
H      0.213401   -2.213533    1.128568
H      1.322949   -3.174381    0.153375
H     -4.326622    1.046120   -0.504647
H     -2.695964    1.546871   -0.070403
H     -2.505157   -2.183427    0.639148
H     -3.432251   -1.623151   -0.767060
H     -3.348556    2.421594    1.799981
