82

C     -4.761795    4.972632    0.888652
C      3.359101    4.056202    1.163228
C     -4.577014    3.649475    0.135511
C      7.163890    2.094865   -1.355758
C      6.907955    3.331632   -0.822150
C      2.013359   -4.355190   -0.585600
C      1.364926   -4.853059    0.661953
C     -3.374671   -2.664753   -2.192518
C     -0.215187   -1.201541    3.209368
C     -4.182018   -1.599273   -2.507126
C     -1.053038   -0.180544    2.833580
C     -2.559796   -2.633459   -1.044916
C      6.204899    1.090877   -1.214906
C      5.715609    3.531771   -0.169563
C     -0.146029   -2.351645    2.451372
C     -5.087401    0.713953   -2.006414
C     -5.021932    2.514094    1.002133
C      1.793799   -2.930728   -0.928434
C     -5.785938    1.018518   -0.702895
C      3.686229   -1.970990    0.191740
C      1.799770   -0.696978   -0.329267
C      4.389810   -1.096028   -0.847255
C      2.713346    0.452238    0.036685
C     -0.096214   -4.780542    0.717731
C     -2.696505    0.848322    1.398723
C     -4.234144   -0.471329   -1.732600
C     -1.839917   -0.292987    1.687281
C     -2.593124   -1.522888   -0.257965
C      5.005579    1.283192   -0.561399
C     -3.527581    0.810629    0.184432
C      4.771679    2.529116   -0.035458
C     -0.918750   -2.494699    1.300788
C     -3.428564   -0.436571   -0.595692
C     -1.743363   -1.464414    0.949240
N      2.269435   -1.989156    0.067392
N     -4.892111    1.220984    0.390320
N      4.060019    0.271378   -0.447933
O      3.591720    2.775078    0.627650
O     -0.794349   -3.632814    0.629487
H     -4.203525    4.989134    1.834093
H     -4.464524    5.831018    0.263679
H     -5.851093    5.120516    1.129229
H      3.358600    4.840545    0.352278
H      2.330442    4.131731    1.615546
H      4.136213    4.340587    1.877788
H     -5.216970    3.731844   -0.769689
H     -3.541175    3.614661   -0.193483
H      8.082781    1.899722   -1.871880
H      7.634550    4.105822   -0.924466
H      1.611687   -4.961171   -1.439307
H      3.116092   -4.543986   -0.600116
H      1.941956   -4.458742    1.511914
H      1.610401   -5.968580    0.689999
H     -3.361500   -3.537941   -2.829371
H      0.383923   -1.095147    4.097244
H     -4.819404   -1.614909   -3.398415
H     -1.122427    0.747880    3.427378
H     -1.957440   -3.470968   -0.841036
H      6.448672    0.122606   -1.659532
H      5.508449    4.503054    0.251410
H      0.533827   -3.123762    2.811263
H     -4.525060    1.563785   -2.404863
H     -5.877636    0.451266   -2.747110
H     -4.566658    2.528684    2.003990
H     -6.125782    2.658221    1.185187
H      0.710052   -2.686789   -1.096795
H      2.317900   -2.706153   -1.864257
H     -6.438599    1.903490   -0.791892
H     -6.441987    0.154579   -0.469311
H      3.946227   -1.529522    1.185187
H      4.161288   -2.970095    0.160663
H      1.639931   -0.632590   -1.447048
H      0.813903   -0.444555    0.108517
H      5.482816   -1.295307   -0.657943
H      4.074602   -1.317645   -1.868758
H      2.303019    1.325931   -0.558957
H      2.627163    0.707530    1.091995
H     -0.485914   -5.490431   -0.081010
H     -0.419090   -5.316693    1.666508
H     -2.124754    1.823491    1.488156
H     -3.410690    0.920350    2.281755
H     -3.101947    1.603171   -0.514363
