65

C     -1.237763   -1.950785   -2.564675
C     -0.745708    2.682246    1.864312
C      3.669348   -2.180193    0.980524
C     -3.478125    2.324832   -0.973648
C     -5.579828    2.150318    0.346496
C      4.782840    1.857913   -3.375467
C      5.056197    2.511124   -2.192182
C      3.828210    0.863588   -3.344629
C      4.398015    2.179800   -1.024972
C      3.176411    0.540588   -2.172186
C     -2.676883   -1.876960   -0.707767
C     -3.076865   -0.444721   -0.934673
C     -0.132267   -1.826548   -0.258302
C     -2.147071    0.558411    1.572131
C      2.126824   -1.017073    2.510446
C     -1.161431   -1.886426   -1.021784
C     -1.038164    1.173720    1.833483
C      2.557377   -2.346012    1.991771
C      3.441980    1.187422   -0.983024
C     -4.058487    0.078357    0.042022
C     -3.588054    0.849907    1.196784
C      0.314666   -1.757081    1.179878
C      1.311309   -2.920084    1.444139
C      0.311944    0.564263    2.154757
C      2.750084    0.845681    0.265884
C     -4.155322    1.616283    0.151160
C      1.092175   -0.516843    1.519666
O      1.598820   -3.535285    0.202991
O      0.934338    1.073306    3.188067
O      3.058578    1.488907    1.298785
O      1.800303   -0.119911    0.372459
H     -0.435210   -1.990728   -3.208457
H     -1.905118   -2.847253   -2.820810
H     -1.870351   -1.064783   -2.916269
H     -1.517409    3.378989    2.124654
H     -0.374415    3.032656    0.875895
H      0.045474    2.940071    2.631942
H      4.331042   -1.349221    1.308880
H      3.269969   -1.990989   -0.019229
H      4.334783   -3.093020    1.001103
H     -3.881296    3.351018   -1.162539
H     -2.403974    2.404480   -0.908877
H     -3.717257    1.753983   -1.915076
H     -5.994134    1.765836    1.304013
H     -6.248340    1.749629   -0.457734
H     -5.548667    3.239777    0.373020
H      5.289133    2.102830   -4.305594
H      5.812898    3.302014   -2.207845
H      3.615453    0.348682   -4.286724
H      4.620709    2.701178   -0.095854
H      2.426579   -0.242698   -2.155335
H     -3.218264   -2.557747   -1.461766
H     -3.052916   -2.235025    0.199976
H     -2.207572    0.251612   -1.008035
H     -3.563438   -0.401622   -1.949733
H      0.979922   -1.784949   -0.693154
H     -2.294488   -0.601154    1.623347
H      2.929996   -0.314521    2.706988
H      1.567442   -1.222306    3.470786
H      2.919815   -2.950602    2.853054
H     -5.024965   -0.480358    0.075172
H     -4.263378    0.723235    2.113089
H     -0.422670   -1.890841    1.959739
H      0.883984   -3.698166    2.070000
H      1.783212   -4.498749    0.318927
