55

C      7.027503   -2.245915    0.086658
C     -7.189933    2.010542   -1.818141
C     -7.779637    0.374553    0.095061
C     -2.667876    0.968356   -0.645517
C      1.969096    1.120831   -0.306631
C      6.957804    0.424256    0.885667
C      6.973169    1.718495   -2.204346
C      6.622041   -1.341638   -0.818876
C     -5.326505   -0.867860   -0.145024
C     -0.490859   -0.653105   -0.085426
C      4.227613   -0.755639    0.761144
C     -5.640238    0.257780   -1.039932
C     -4.217313   -0.552836    0.775158
C     -1.816046   -0.983021    0.453529
C      0.443311   -0.349472    1.060383
C      2.809434   -0.761136    1.001970
C      4.741181    0.141138   -0.278825
C     -6.826488    0.860965   -0.929135
C     -2.905658   -0.217955    0.202209
C      1.824019   -0.020879    0.594478
C      6.274801    0.036200   -0.372949
N      6.660623    0.956972   -1.375929
H      7.098417   -1.970685    1.124078
H      7.288094   -3.248479   -0.186948
H     -6.447970    2.110206   -2.623235
H     -8.199946    1.838238   -2.200703
H     -7.197548    2.975995   -1.272659
H     -7.344134    0.377069    1.123501
H     -8.048254   -0.671677   -0.154235
H     -8.674394    1.039676    0.099608
H     -3.434257    1.770590   -0.503528
H     -1.706906    1.482150   -0.387729
H     -2.589797    0.652078   -1.695447
H      2.400035    0.807057   -1.263377
H      0.928209    1.492538   -0.626972
H      2.393995    2.039930    0.145034
H      8.060649    0.243774    0.718233
H      6.712559   -0.116222    1.791350
H      6.842193    1.532895    1.012544
H      6.565024   -1.653405   -1.838184
H     -5.133201   -1.814056   -0.724455
H     -6.205869   -1.152104    0.497860
H     -0.086371   -1.628872   -0.517477
H     -0.457379    0.039652   -0.917456
H      4.489926   -1.849023    0.465992
H      4.824215   -0.682691    1.728758
H     -4.927879    0.587004   -1.802583
H     -4.536309    0.279135    1.453599
H     -4.070941   -1.466683    1.430270
H     -1.992046   -1.862185    1.084019
H      0.421557   -1.203580    1.751929
H      0.066971    0.534376    1.605866
H      2.478899   -1.591929    1.703873
H      4.443991    1.180148   -0.143332
H      4.368427   -0.191553   -1.296122
