54

C     -2.264352    2.444088    1.057527
C     -1.210706   -1.465406    1.839607
C     -0.178333    0.641967    2.294251
C     -2.542262    1.097979    0.501409
C     -1.157203   -2.994065   -1.686283
C     -2.494833   -3.253898   -1.988448
C      5.088744    1.570730   -0.034004
C      4.093977    2.290028   -0.891154
C     -0.577714    1.014586   -1.001414
C      0.791140    1.420147   -0.599377
C      0.586354   -1.600142   -0.687033
C     -3.160071   -1.195282   -0.934650
C      2.738767    0.704429    0.651790
C     -0.831729   -1.830928   -1.007370
C     -3.478064   -2.362572   -1.614663
C     -1.849957   -0.969304   -0.654951
C      0.788380   -0.725409    0.513357
C     -0.517961   -0.290425    1.165421
C      3.784483    0.914435   -0.453300
C     -1.363253    0.279755    0.071487
N      1.484457    0.428879    0.106286
O     -4.795151   -2.667845   -1.939326
O      3.968663   -0.177344   -1.305546
Cl     0.686687    0.000000    0.000000
H     -2.854715    3.253946    0.505853
H     -1.227673    2.742742    1.177863
H     -2.740003    2.498085    2.083243
H     -0.714207   -1.612746    2.834774
H     -2.243576   -1.143260    2.075872
H     -1.130116   -2.412725    1.322706
H      0.348715    0.022611    3.092433
H      0.511650    1.444076    2.070624
H     -1.048811    1.051181    2.834451
H     -3.136396    0.473391    1.206029
H     -3.215120    1.290624   -0.391457
H     -0.375011   -3.700365   -1.981953
H     -2.734933   -4.157909   -2.514640
H      6.040779    1.215650   -0.488947
H      5.173560    1.906708    1.025065
H      4.401883    2.444021   -1.947290
H      3.534886    3.138863   -0.445143
H     -0.529215    0.484516   -1.968903
H     -1.123812    1.974420   -1.256624
H      1.365688    1.618509   -1.556751
H      0.814424    2.431743   -0.093290
H      1.097387   -2.586420   -0.474112
H      1.083561   -1.224531   -1.600496
H     -3.939286   -0.515865   -0.647263
H      3.124769   -0.130170    1.269862
H      2.740979    1.664204    1.217324
H      1.375166   -1.241198    1.307267
H     -5.350421   -3.193507   -1.294565
H      3.846470   -1.010996   -0.765549
H     -0.686687    0.000000    0.000000
