65

C     -2.443121   -2.180023    2.576293
C     -0.671403    3.675612   -0.109082
C      3.238294   -1.907581   -1.702426
C     -4.902973    1.554169   -1.364348
C     -4.428936   -0.534727   -2.770039
C      6.379971    0.397977    2.891018
C      6.113150    0.066245    1.582717
C      5.324430    0.740197    3.700858
C      4.812477    0.084058    1.119556
C      4.021981    0.757257    3.234567
C     -1.986254    0.145489    1.658807
C     -3.197395    0.506516    0.803861
C     -0.829207   -1.682223    0.760309
C     -2.120006    1.975616   -0.960154
C      1.272807   -0.403605   -1.865491
C     -1.705079   -1.258470    1.622835
C     -0.859192    2.253824   -0.672925
C      1.730876   -1.788541   -1.664299
C      3.760897    0.424233    1.924245
C     -3.200679   -0.164433   -0.540842
C     -2.468098    0.647467   -1.512535
C     -0.042766   -1.067342   -0.189893
C      1.116362   -2.164263   -0.379295
C      0.292268    1.409010   -0.818974
C      2.407665    0.421527    1.383677
C     -3.969005    0.407896   -1.677816
C      0.727575    0.082638   -0.432730
O      1.916271   -2.179545    0.725282
O      1.194894    2.114559   -1.526233
O      1.414496    0.748787    2.089214
O      2.067465    0.084041    0.119888
H     -3.330137   -1.686400    2.987066
H     -1.793079   -2.496894    3.406898
H     -2.832598   -3.058880    1.983057
H     -0.774902    3.537252    0.986590
H     -1.457168    4.335574   -0.458814
H      0.331476    4.046404   -0.311820
H      3.643186   -0.911425   -1.958241
H      3.509340   -2.596501   -2.505634
H      3.652878   -2.199389   -0.725636
H     -4.586940    2.492625   -1.906600
H     -5.022176    1.740162   -0.285322
H     -5.895474    1.306912   -1.762382
H     -3.658611   -0.537559   -3.564163
H     -5.416389   -0.225965   -3.102739
H     -4.453675   -1.586988   -2.373772
H      7.410287    0.386668    3.268130
H      6.935258   -0.209502    0.918720
H      5.537404    1.003941    4.741077
H      4.659285   -0.180194    0.087264
H      3.200202    1.027059    3.877193
H     -1.185944    0.855736    1.646737
H     -2.411654    0.346907    2.718045
H     -3.314650    1.580558    0.815698
H     -4.118600    0.100005    1.323732
H     -0.732731   -2.816445    0.827594
H     -2.902365    2.737602   -0.782659
H      0.402886   -0.352303   -2.549471
H      1.996892    0.323234   -2.223241
H      1.282334   -2.400645   -2.511354
H     -3.209840   -1.254911   -0.498009
H     -1.909969    0.261522   -2.386551
H     -0.566553   -1.298090   -1.202943
H      0.584783   -3.127034   -0.491176
H      1.459482   -2.309404    1.574105
