55

C     -4.373466   -0.092569    0.456732
C     -3.519038   -0.027820   -1.874532
C      4.642825   -0.757486    1.826062
C      0.558231    4.458604   -0.270979
C     -0.671570   -4.220403    0.536782
C      2.370317    1.493212   -0.334911
C      1.809050   -1.533427   -0.292775
C      3.289379    0.900286    0.663783
C      3.255387   -1.319048   -0.243493
C      1.228724    2.090931    0.414080
C      1.228169   -2.806388    0.147484
C     -0.754825    2.473439   -0.904564
C     -1.029467   -1.865050   -0.411172
C     -1.020872    1.044214   -0.932732
C     -1.514667   -0.877304    0.570573
C     -3.354123    0.497007   -0.496399
C      3.711646   -0.323277    0.749669
C      0.300916    2.957453   -0.283399
C     -0.099681   -2.908381    0.078910
C     -1.954587    0.458585    0.055909
O     -1.980821    1.304635    1.198289
H     -4.130608    0.176138    1.503567
H     -5.352397    0.370061    0.214576
H     -4.490261   -1.184726    0.310413
H     -3.763836    0.790665   -2.593556
H     -2.737416   -0.695261   -2.247592
H     -4.457931   -0.661750   -1.881718
H      4.768016   -0.013720    2.623331
H      4.350487   -1.736834    2.252221
H      5.660340   -0.906347    1.376876
H      0.929748    4.787097    0.702668
H     -0.346976    4.999351   -0.608167
H      1.332382    4.623194   -1.048445
H     -0.667516   -4.317477    1.632008
H     -0.065442   -5.079522    0.140061
H     -1.692260   -4.377723    0.175894
H      2.176834    0.913740   -1.211420
H      2.958672    2.394704   -0.722742
H      1.452686   -1.346782   -1.322361
H      1.372701   -0.800634    0.462587
H      3.658570    1.602993    1.434217
H      3.770094   -2.281809   -0.073506
H      3.669211   -0.959569   -1.234237
H      0.723024    1.305866    1.048784
H      1.699741    2.739401    1.235371
H      1.847232   -3.616585    0.507831
H     -1.448340    3.158196   -1.409835
H     -0.563584   -1.374950   -1.281923
H     -1.902833   -2.432015   -0.875804
H     -0.077121    0.527736   -0.774758
H     -1.456355    0.834499   -1.947871
H     -2.441958   -1.323308    1.050656
H     -0.802952   -0.798998    1.421689
H     -3.613397    1.601290   -0.521865
H     -2.480079    2.135863    1.009731
