69

C     -2.819396    0.039832   -2.755568
C      0.242959    1.557541    3.293451
C      0.915241   -4.402574   -0.331917
C     -5.813293    1.640625    1.441644
C     -4.087080    3.373467    1.973410
C      7.461756    0.398405   -2.932480
C      7.511893   -0.153456   -1.678244
C      6.244638    0.667675   -3.514443
C      6.324992   -0.442372   -0.996444
C      5.074136    0.371732   -2.816712
C     -2.094290    2.147775   -1.832678
C      3.861821   -0.472213   -0.896849
C     -2.758881    2.687851   -0.556873
C      3.803060   -1.008885    0.298442
C     -1.231227    0.048617   -0.717795
C     -2.006159    1.367634    2.104691
C     -0.103921   -2.787656    1.324170
C     -1.901937    0.600327   -1.675471
C     -0.861669    0.852399    2.452194
C     -0.212261   -3.485821   -0.024570
C      5.106442   -0.183115   -1.559532
C     -3.567663    1.650674    0.105748
C     -3.261710    1.040623    1.355280
C     -0.965235   -1.288579   -0.112309
C      2.535998   -1.303948    0.971125
C     -0.364931   -2.334183   -1.007266
C     -0.251898   -0.502834    2.176829
C     -4.364865    2.049909    1.290822
C      0.043526   -1.313597    1.001679
O      2.583887   -1.802472    2.116329
O      0.804902   -1.968455   -1.617473
O      0.136968   -1.174723    3.249958
O      1.306488   -1.069157    0.426814
H     -2.421160   -0.755937   -3.404285
H     -3.034500    0.832500   -3.543660
H     -3.796290   -0.267844   -2.417699
H     -0.009040    2.327895    3.990354
H      1.074887    1.914336    2.696055
H      0.673042    0.791453    4.036126
H      1.435076   -4.822114    0.549189
H      0.537391   -5.293425   -0.886780
H      1.710575   -3.869044   -0.925604
H     -6.038373    0.709942    0.869173
H     -6.452583    2.482993    1.116134
H     -6.052626    1.385099    2.515786
H     -4.982588    4.067766    1.839551
H     -3.261739    3.948915    1.511588
H     -3.999896    3.268427    3.073129
H      8.403418    0.621703   -3.455849
H      8.463879   -0.358332   -1.236450
H      6.232465    1.100105   -4.496486
H      6.438157   -0.874166   -0.019970
H      4.149295    0.607984   -3.330575
H     -1.309273    2.749087   -2.134008
H     -2.903456    2.317269   -2.613689
H      2.891699   -0.251410   -1.360667
H     -2.011118    3.118783    0.126633
H     -3.419641    3.514861   -0.869872
H      4.704006   -1.252645    0.828704
H     -0.431271    0.602672   -0.051958
H     -2.290613    2.475949    2.384003
H      0.764648   -3.224406    1.836726
H     -1.043892   -2.885100    1.920100
H     -1.151758   -4.073097   -0.011696
H     -4.223938    1.092000   -0.646132
H     -3.778408    0.024299    1.516665
H     -1.878533   -1.745491    0.335720
H     -1.160280   -2.627981   -1.744547
H      0.880148   -2.454095   -2.482301
