40

C     -0.894645   -2.931164    0.914792
C      4.799414    1.555623    0.189513
C      4.627881    0.208871    0.038868
C      3.694941    2.357683    0.249280
C     -4.030725   -0.425350   -0.225786
C     -0.848716    3.094117    0.212178
C     -0.682832   -1.932563   -0.230564
C      3.338182   -0.305551   -0.049044
C     -3.035101   -1.342545   -0.290598
C     -3.773361    0.931635   -0.087228
C     -2.202226    2.705526    0.133585
C      2.408806    1.831090    0.160087
C      0.169123    2.183186    0.144219
C     -1.705565   -0.894444   -0.214233
C     -2.464402    1.367037   -0.013601
C      2.208257    0.455797    0.005619
C     -0.093827    0.825645   -0.005120
C     -1.409013    0.435530   -0.079775
C      0.936133   -0.086999   -0.082412
C      0.748712   -1.525004   -0.289797
O      3.241923   -1.662009   -0.198597
O     -3.228807   -2.702755   -0.428245
O     -4.748792    1.732923   -0.032245
O     -3.167401    3.663500    0.206522
O      1.158943   -1.908513   -1.591739
O      1.397839    2.648452    0.223715
H     -1.450791   -3.795437    0.579717
H      0.116644   -3.282175    1.202740
H     -1.312456   -2.427228    1.807569
H      5.799581    1.968481    0.259219
H      5.494580   -0.429261   -0.008982
H      3.819158    3.415359    0.367352
H     -5.058617   -0.756302   -0.283390
H     -0.678090    4.153200    0.328771
H     -0.952467   -2.572191   -1.146212
H      1.228972   -2.149408    0.496991
H      3.997767   -2.311285   -0.250344
H     -4.211993   -3.012924   -0.482679
H     -4.106439    3.756759    0.189724
H      0.869407   -2.837303   -1.719868
