54

C      6.876652   -1.590269    1.284891
C      5.649490   -2.669601    3.728105
C      2.496564   -3.661513    1.505996
C     -7.408291    3.972578   -1.758392
C     -4.034410    1.725271   -3.185017
C     -1.876835    4.249815   -2.315805
C      6.288532   -2.985745    1.334918
C      2.077821   -1.180468    1.100551
C      0.859951   -1.338041    0.714361
C      4.188464   -1.981785    1.928047
C     -1.352226   -0.821370   -0.106150
C     -0.759023    1.855589   -0.273413
C      5.123569   -3.041460    2.337056
C      2.948272   -2.231459    1.529820
C     -6.425248    2.860325   -1.964403
C     -0.078896   -0.370403    0.269127
C     -2.305189    0.056540   -0.552883
C     -2.025079    1.398223   -0.653707
C     -3.547167   -0.397602   -0.747824
C     -4.575377    0.530374   -1.200098
C     -2.875770    2.293910   -1.183533
C     -4.229806    1.861064   -1.636498
Cl    -3.886642   -2.089961   -0.455266
N      0.135263    0.933593    0.164317
O     -6.710052    1.851718   -2.629423
O     -5.753437    0.063240   -1.163352
O     -2.454575    3.571619   -1.270702
O     -5.127514    2.917815   -1.411921
H      6.832772   -1.066871    2.268793
H      7.910611   -1.675893    0.895692
H      6.328715   -0.951932    0.551059
H      5.169918   -3.358203    4.442907
H      6.752228   -2.747712    3.686911
H      5.330276   -1.631490    3.998251
H      2.554526   -4.029758    2.558861
H      1.497367   -3.847068    1.151646
H      3.278918   -4.226560    0.944530
H     -8.126033    3.946604   -2.602190
H     -6.873531    4.944504   -1.831013
H     -7.889744    3.910098   -0.778063
H     -4.074539    2.682143   -3.681620
H     -4.766258    0.979154   -3.546678
H     -3.026402    1.277810   -3.304308
H     -2.514222    4.303205   -3.238853
H     -0.901513    3.830277   -2.699785
H     -1.677846    5.307137   -1.941369
H      7.048159   -3.722036    1.675080
H      5.862954   -3.246307    0.353360
H      2.497782   -0.118589    1.103125
H      0.493082   -2.399678    0.731495
H      4.508161   -0.931226    1.944062
H     -1.631367   -1.868031   -0.057422
H     -0.535734    2.914829   -0.334857
H      4.732681   -4.056405    2.340235
