49

C     -2.093895   -3.027013   -2.052197
C     -5.359581   -1.717200    1.403441
C     -5.078089   -1.365877    2.706856
C     -4.841282   -1.032145    0.332000
C     -4.251289   -0.294108    2.923838
C      3.662007    0.203757    0.761952
C      5.332131    0.634560   -0.828401
C      4.617610    0.002522    1.756387
C      6.312871    0.444493    0.121483
C     -3.478004    0.763084   -0.599065
C      2.540023    2.174016   -1.535462
C     -0.317296   -0.985964   -1.591428
C      3.986503    0.517841   -0.526614
C     -4.004180    0.051767    0.589433
C      5.940184    0.129962    1.405237
C     -2.053752    0.482440   -0.860033
C     -3.709213    0.421302    1.869267
C      1.281168    2.219221   -0.710531
C      2.995805    0.740512   -1.612150
C     -1.662595   -0.753365   -1.333687
C      0.640784   -0.016300   -1.387631
C      0.247854    1.214993   -0.915807
C     -1.114231    1.464689   -0.650368
O      6.912429   -0.060286    2.355542
O     -2.880404    1.495164    2.139532
O      1.076361    3.101384    0.164877
O     -1.367510    2.739015   -0.186935
O     -2.557774   -1.784857   -1.567348
O      1.982066   -0.208655   -1.630838
H     -2.934328   -3.737352   -2.102306
H     -1.319171   -3.368126   -1.304050
H     -1.568819   -2.953994   -3.012971
H     -6.007056   -2.556342    1.191597
H     -5.521320   -1.951441    3.522294
H     -5.082884   -1.323840   -0.699367
H     -4.010535    0.007643    3.936472
H      2.613451    0.108228    1.018582
H      5.668973    0.882196   -1.830956
H      4.293687   -0.248273    2.776617
H      7.362526    0.532622   -0.104021
H     -3.696338    1.843964   -0.424899
H     -4.115597    0.504685   -1.484420
H      2.353993    2.546751   -2.556749
H      3.289404    2.785702   -0.984280
H      0.011389   -1.963023   -1.968479
H      3.536152    0.646919   -2.603654
H      7.303521    0.649745    2.949777
H     -2.673371    1.754199    3.093651
H     -2.262376    3.109399    0.045813
