54

C     -3.181908   -2.533088    1.861793
C      7.230980   -0.363339   -0.484831
C     -6.760561    0.955092   -1.364683
C      6.562441    0.479071    0.366034
C      6.527142   -1.363320   -1.146229
C     -5.929154   -0.155225   -1.481891
C     -6.262921    2.060709   -0.683460
C      5.179955    0.306942    0.541126
C      5.163543   -1.497811   -0.940791
C     -4.667007   -0.115280   -0.926985
C     -4.996106    2.091161   -0.131309
C      2.506294    0.399638    0.885767
C      2.295443   -0.801292   -1.232165
C      0.992538    0.258172    1.035910
C      0.827000   -0.953984   -0.928046
C     -2.142311    2.173595    0.874833
C     -0.442210    1.106639   -0.783134
C      4.473367   -0.671962   -0.100301
C     -4.180085    0.992331   -0.247761
C     -1.771948    1.553008   -0.460755
C     -2.638431   -0.276506    1.195349
C      3.015413   -0.774567    0.114350
C     -2.833137    0.983367    0.381884
N      0.327470    0.155657   -0.174636
O     -1.717059   -0.422989    2.010938
O      2.779861   -1.968330    0.820648
O     -3.461098   -1.388321    1.082611
H     -2.163497   -2.499007    2.297233
H     -3.968476   -2.811757    2.581151
H     -3.131150   -3.373670    1.107235
H      8.305923   -0.264270   -0.642294
H     -7.769853    0.947707   -1.798721
H      7.128013    1.248962    0.874437
H      7.055399   -2.017531   -1.807729
H     -6.282701   -1.027437   -2.001963
H     -6.913584    2.933280   -0.602226
H      4.695278    1.012092    1.225497
H      4.605444   -2.274160   -1.468755
H     -4.047678   -1.002200   -1.046358
H     -4.602552    2.941892    0.396336
H      2.901276    0.284288    1.938434
H      2.784039    1.340857    0.412395
H      2.490488    0.149396   -1.725989
H      2.636601   -1.709229   -1.745532
H      0.691516    1.084615    1.699190
H      0.860709   -0.693092    1.615694
H      0.734557   -1.860369   -0.279545
H      0.287405   -1.139297   -1.878680
H     -1.452237    2.058675    1.750493
H     -2.616869    3.177205    0.901625
H     -0.338687    0.943649   -1.939886
H      0.218977    2.096644   -0.752189
H     -2.218969    2.191276   -1.325276
H      3.213115   -1.967886    1.687556
