49

C     -1.968717    3.296342    1.214010
C     -5.442720   -1.771339   -1.492636
C     -6.343950   -0.737339   -1.430583
C     -4.369211   -1.817887   -0.632034
C     -6.135533    0.230875   -0.488910
C      4.860354   -0.948689    0.013437
C      4.745970    1.392266   -0.086185
C      5.980081   -0.866813    0.839315
C      5.851876    1.495209    0.729334
C     -2.915910   -0.932439    1.189708
C      2.584259   -1.236556   -1.737232
C     -0.112876    1.437603    0.135659
C      4.218386    0.149252   -0.468526
C     -4.120878   -0.842808    0.345360
C      6.475270    0.351277    1.196656
C     -1.680963   -0.334376    0.683470
C     -5.039224    0.177250    0.387541
C      1.447035   -1.727914   -0.936414
C      3.054329    0.109011   -1.356171
C     -1.321051    0.970919    0.654238
C      0.807504    0.543059   -0.393239
C      0.480520   -0.787058   -0.380504
C     -0.739419   -1.239462    0.145809
O      7.593414    0.412996    2.020417
O     -4.910021    1.195647    1.320242
O      1.263949   -2.953204   -0.703070
O     -0.912393   -2.594918    0.090157
O     -2.200755    1.918750    1.175751
O      2.008768    0.954587   -0.915986
H     -1.479551    3.719699    0.325001
H     -1.379752    3.543170    2.146862
H     -2.960584    3.796893    1.306287
H     -5.578388   -2.554138   -2.226170
H     -7.204317   -0.687317   -2.116781
H     -3.650681   -2.629622   -0.672755
H     -6.821138    1.074606   -0.396095
H      4.515067   -1.941972   -0.225485
H      4.242298    2.280637   -0.461733
H      6.445719   -1.774617    1.187788
H      6.269147    2.446016    1.032341
H     -2.753362   -1.965791    1.605377
H     -3.124755   -0.346473    2.165923
H      2.170098   -1.185440   -2.801015
H      3.400003   -1.984827   -1.814916
H      0.118002    2.488594    0.139019
H      3.422634    0.591512   -2.340155
H      8.488078    0.428526    1.517815
H     -5.583246    1.935938    1.347294
H     -1.693364   -3.079632    0.434033
