45

C     -5.305063   -0.909854   -1.747118
C     -5.845897    0.768931    0.428578
C     -3.317260   -0.019006    1.469603
C      7.311969   -0.997858   -0.289643
C     -5.466717    0.575946   -1.939384
C     -1.274509    0.528979   -0.003175
C     -0.442218   -0.018121    0.814153
C     -3.541220    1.131020   -0.625309
C      1.900256   -0.571402    1.310757
C      2.818643    0.579950   -0.996349
C     -4.976413    1.294242   -0.626417
C     -2.732890    0.571365    0.242772
C      1.017894   -0.021651    0.499574
C      3.330616   -0.587615    1.025910
C      3.753285    0.046409   -0.226299
C      4.212243   -1.145973    1.852965
C      5.169016    0.078495   -0.596134
C      5.609621   -1.121528    1.501030
C      6.175341   -0.285389    0.412487
Cl     3.653608   -1.890250    3.336633
O      5.520685    0.405875   -1.738259
O      6.410295   -1.847068    2.146166
O      6.637630    0.923963    0.980440
O      1.460524    0.559759   -0.660824
H     -4.384705   -1.171161   -1.185060
H     -6.166741   -1.333479   -1.159139
H     -5.224495   -1.413842   -2.731581
H     -5.701595   -0.271686    0.684065
H     -6.021583    1.454260    1.311012
H     -6.928586    0.763684   -0.010686
H     -2.471241   -0.101650    2.235109
H     -4.025435    0.648920    2.001209
H     -3.637360   -1.053812    1.326486
H      6.883853   -1.509647   -1.174380
H      8.014017   -0.191430   -0.631715
H      7.806338   -1.710174    0.404864
H     -6.530909    0.799566   -2.049026
H     -4.828475    0.891049   -2.773469
H     -0.921797    0.991854   -0.928779
H     -0.757286   -0.485755    1.719895
H     -2.965854    1.546117   -1.516558
H      1.560099   -1.022230    2.209867
H      3.144700    1.043931   -1.916405
H     -5.270055    2.378193   -0.887830
H      6.347670    1.698075    0.470064
