50

C      6.597760    1.469474    0.307772
C      1.436869    2.490046   -0.008725
C     -6.313230    0.115860   -0.216042
C      4.223607    0.737882    0.203634
C      1.371575   -1.989927   -0.825315
C     -2.661793   -0.582104   -1.689906
C      5.548884    0.489564   -0.058454
C      3.235007   -0.174170   -0.136146
C      2.675547   -2.262634   -1.096630
C      0.918615   -0.812507   -0.201902
C     -2.971761    0.602326   -0.799633
C      3.638678   -1.341616   -0.748533
C     -3.424261    0.541370    1.575374
C     -2.185471   -0.328186    1.634525
C      1.886606    0.086033    0.132805
C     -4.044165    0.280213    0.214278
C      4.975352   -1.530417   -0.982703
C     -1.173178    0.297306    0.652789
O     -1.818817   -0.174628   -2.716753
O      3.110772   -3.424232   -1.710253
O     -4.306341    0.145895    2.560517
O     -1.640910   -0.362231    2.915160
O      5.375551   -2.588459   -1.541276
O      1.634651    1.294439    0.744468
O     -5.223115    0.921544    0.002057
O      5.880555   -0.632302   -0.640921
O     -0.405071   -0.634107    0.027046
O     -1.843230    1.167326   -0.221519
H      6.163035    2.215048    0.990496
H      7.477777    0.966363    0.726196
H      6.880777    2.009189   -0.636873
H      0.400599    2.821420    0.177507
H      2.119324    3.292561    0.368033
H      1.614870    2.249875   -1.057929
H     -7.197669    0.793656   -0.374063
H     -6.542431   -0.425255    0.733037
H     -6.252136   -0.538137   -1.080434
H      3.951069    1.667781    0.686511
H      0.608490   -2.707582   -1.095455
H     -2.272167   -1.432846   -1.109236
H     -3.643000   -0.922547   -2.106390
H     -3.396908    1.385077   -1.469900
H     -3.085410    1.587556    1.693325
H     -2.454359   -1.332644    1.275690
H     -4.225319   -0.814431    0.163460
H     -0.557066    0.965609    1.288151
H     -1.238146    0.536157   -2.339296
H      2.453420   -4.139023   -1.990091
H     -4.013144   -0.693674    3.023463
H     -1.290292   -1.285913    3.048445
