19

C      2.912659    0.055314    0.100781
C      0.201955    0.931310   -0.504502
C     -1.156327    1.410799   -0.292990
C      0.485562   -0.290745   -0.069416
C     -0.487886   -1.163336    0.601751
C     -2.249128    0.422097   -0.239091
C     -1.899304   -0.874919    0.192892
O     -1.385784    2.645060   -0.159703
O     -0.408705   -1.037039    1.991564
O      1.793514   -0.722360   -0.286012
O     -2.188157   -0.636852   -1.165628
H      2.854038    1.026768   -0.442063
H      3.832928   -0.504611   -0.136969
H      2.919323    0.284902    1.186223
H      0.934247    1.568230   -1.000794
H     -0.209048   -2.217878    0.348454
H     -3.275092    0.814887   -0.088670
H     -2.672874   -1.535685    0.653977
H     -0.001923   -0.175944    2.226621
