25

C      4.157146   -0.478992    0.792284
C      0.095399   -0.965253    0.086438
C      0.512598    0.270216    0.248153
C     -1.353336   -1.181913   -0.168540
C     -0.388010    1.447329    0.188341
C     -2.075722   -0.282664    0.840946
C     -1.831923    1.129944    0.349967
C      1.918732    0.508783    0.497794
Cl     0.109809    2.632229    1.432569
O     -1.732063   -2.497553   -0.051887
O     -3.414775   -0.559790    0.911823
O     -2.463705    1.211604   -0.912918
O      2.408276    1.656009    0.664788
O      2.785030   -0.565045    0.559724
H      4.379406    0.382937    1.419687
H      4.673273   -0.336629   -0.183281
H      4.478264   -1.445511    1.264874
H      0.812442   -1.765042    0.144386
H     -1.547699   -0.808908   -1.198732
H     -0.179411    1.941854   -0.804121
H     -1.574460   -0.376884    1.845077
H     -2.381172    1.870480    0.985712
H     -1.730326   -2.901591   -0.972874
H     -3.874037   -0.068176    0.186012
H     -1.783736    1.182567   -1.642747
