53

C     -2.836503    0.817220    2.290097
C     -2.866890   -0.770079   -0.891176
C     -2.270370   -0.478107    1.874876
C      6.157308    0.595873   -1.014176
C      0.149965   -4.414174    0.043960
C      6.022316    0.503304    0.350018
C      4.963827    0.629318   -1.755604
C     -0.069853   -3.500513   -0.978257
C     -0.073158   -3.961059    1.313443
C      1.126763    0.494343    0.396237
C      4.785792    0.445823    0.930574
C      3.714220    0.571846   -1.178015
C      2.370616    0.409504    0.938594
C     -0.483654   -2.224756   -0.761834
C     -0.490479   -2.672079    1.543075
C     -2.212041    3.675053   -1.674588
C     -3.348749    2.809510   -2.139918
C     -0.039878    0.409861    1.259295
C     -1.574319    1.256151   -1.001214
C      3.598266    0.478589    0.173457
C     -2.630192    2.348110   -0.944583
C     -0.709442   -1.770428    0.533160
C     -1.175689   -0.394859    0.795546
N     -1.846261    0.059727   -0.396444
H     -2.971101    0.803683    3.419009
H     -2.261068    1.709280    2.092625
H     -3.874405    0.981532    1.881753
H     -2.810496   -1.785747   -0.503781
H     -2.821422   -0.829306   -1.999050
H     -3.901413   -0.422375   -0.583688
H     -1.849187   -1.014979    2.756498
H     -3.052371   -1.132077    1.465746
H      7.125527    0.644862   -1.508883
H      0.478694   -5.433876   -0.163241
H      6.940451    0.486328    0.941129
H      5.076385    0.704182   -2.826625
H      0.121328   -3.891851   -1.997229
H      0.090665   -4.650667    2.132466
H      1.157843    0.599874   -0.668673
H      4.735419    0.376721    2.028251
H      2.802005    0.598702   -1.768395
H      2.385238    0.286828    2.032495
H     -0.631476   -1.551650   -1.599933
H     -0.622456   -2.413631    2.590802
H     -2.381418    4.617905   -1.151826
H     -1.240333    3.596915   -2.222172
H     -4.357889    3.278832   -1.991825
H     -3.235370    2.384342   -3.151537
H      0.302610   -0.080396    2.238149
H     -0.317673    1.436849    1.615776
H     -0.656088    1.762877   -0.681370
H     -1.422841    1.070897   -2.114344
H     -3.070752    2.547769    0.031348
