24

C      0.571806    0.657007   -1.144487
C      0.789895   -0.252286    1.012977
C      1.895587    0.322616   -1.411547
C      2.103504   -0.584086    0.747916
C     -2.323098   -0.483745    0.342260
C     -0.009521    0.376092    0.075216
C      2.684443   -0.303625   -0.470283
C     -1.423016    0.735583    0.354171
N     -2.280067   -1.153701   -0.936467
O      4.017621   -0.639341   -0.741889
O     -1.523362    1.323626    1.624644
Cl     0.690464    0.000000    0.000000
H     -0.031248    1.146605   -1.892039
H      0.323979   -0.469249    1.969428
H      2.351646    0.542320   -2.366669
H      2.704349   -1.074165    1.498627
H     -3.359962   -0.108386    0.478012
H     -2.109903   -1.162121    1.186367
H     -1.788700    1.452367   -0.379252
H     -3.096699   -1.743314   -1.124213
H     -2.011181   -0.523601   -1.714455
H      4.786066   -0.017229   -0.555541
H     -2.272139    1.958634    1.646353
H     -0.690464    0.000000    0.000000
