85

C     -5.421234   -0.491098    2.862297
C     -3.936317   -2.351928    2.078961
C     -2.598967   -1.093623   -3.796750
C     -0.186811   -1.523839   -3.851946
C      4.365443   -1.679578   -2.377376
C      3.842298    2.248927    3.621476
C     -1.971992    3.730230    0.994495
C      3.198950    1.332889    2.796218
C      5.162588    2.648070    3.379937
C     -1.325256    2.678424    0.122423
C     -3.066102    2.963031    1.670744
C     -5.443227   -1.140077    0.440085
C      2.371337   -0.917369    1.177641
C      5.471788   -0.168890   -0.469519
C      3.036981   -2.342739   -0.581505
C     -5.201692   -1.575189    1.820531
C     -1.429536   -1.770127   -3.077535
C      1.820866   -1.887983    0.197072
C      3.932732    0.851720    1.743446
C      3.349850   -0.134841    0.790509
C      5.999381    0.814819    0.502722
C      5.882369    2.150721    2.314252
C      3.959601   -0.141395   -0.564607
C     -4.656455   -0.034960   -0.152438
C     -2.521854    1.941128   -0.414299
C      5.226838    1.247249    1.512676
C      7.211595    1.476053    0.666403
C      0.840029   -1.251523   -0.755227
C     -4.710322    1.256498    0.474489
C     -2.753478   -1.594700   -1.112931
C     -1.426098   -1.218172   -1.666980
C     -2.217185    0.505839   -0.533850
Br     8.699284    1.249736   -0.486647
N      7.098701    2.273473    1.772345
N     -0.346809   -1.642000   -0.866863
N      3.496457   -1.211968   -1.347934
N     -3.541506    2.033634    0.645566
N     -3.331862   -0.389379   -0.578072
O      1.280035   -0.191982   -1.534698
O     -5.761730    1.817355    0.923200
O     -3.334818   -2.696957   -1.071781
O     -1.454814    0.109762    0.590016
O     -1.527446    0.189486   -1.711274
Cl     0.687753    0.000000    0.000000
H     -4.612429    0.267051    2.870499
H     -6.442660   -0.065283    2.795928
H     -5.386325   -0.933518    3.903991
H     -3.916259   -3.321397    1.537055
H     -3.018190   -1.819955    1.755986
H     -3.865287   -2.650436    3.166207
H     -2.428275   -0.019657   -3.939229
H     -2.703346   -1.643530   -4.762985
H     -3.493491   -1.328369   -3.197268
H     -0.026775   -0.419933   -3.928909
H     -0.407834   -1.829580   -4.912332
H      0.682289   -2.055114   -3.447824
H      4.710056   -0.907480   -3.079567
H      3.777522   -2.416478   -2.999495
H      5.214613   -2.298604   -1.970290
H      3.319226    2.665405    4.467820
H     -2.356138    4.585406    0.438523
H     -1.224521    4.007533    1.764250
H      2.188591    0.999094    2.939786
H      5.665960    3.360210    4.019399
H     -0.706922    2.028104    0.765759
H     -0.701461    3.123874   -0.676689
H     -3.934936    3.589014    1.958946
H     -2.676532    2.405354    2.543429
H     -6.552912   -0.891456    0.386785
H     -5.364771   -2.019639   -0.229052
H      2.002247   -0.833767    2.189914
H      5.880570    0.096288   -1.456247
H      5.770842   -1.180380   -0.130494
H      2.780356   -3.209510   -1.240440
H      3.837738   -2.666047    0.138933
H     -6.033594   -2.321717    2.032750
H     -1.645829   -2.857153   -3.097787
H      1.304944   -2.733603    0.693758
H      3.734188    0.871842   -0.996195
H     -5.210080    0.153636   -1.144230
H     -2.893136    2.354301   -1.370695
H      7.836751    2.889745    2.151103
H      0.730335    0.639899   -1.662826
H     -1.916137    0.317123    1.422306
H     -0.687753    0.000000    0.000000
