41

C     -2.969724   -2.187682   -1.168271
C      3.304717   -0.029644    0.822137
C      0.384453    2.832066   -0.296747
C      2.057844    0.372015    1.253536
C     -0.498594    1.910969   -1.048394
C     -1.122105   -0.681086    1.675862
C     -1.883776   -1.653940    0.881663
C      2.274283   -1.159156   -1.032193
C     -0.145949   -1.168216   -1.387970
C     -0.345357    1.614371    1.881902
C      1.024793   -0.763526   -0.610284
C      3.413758   -0.797446   -0.323963
C      0.305477    2.714853    1.165618
C      0.939466    0.000268    0.533109
C     -1.160627    0.848834   -0.283744
C     -1.386098   -0.409712   -1.113790
C     -0.438784    0.410887    0.959538
N     -2.371998   -1.168908   -0.379631
O      4.661228   -1.206505   -0.766478
O      0.825743    3.609299    1.834134
H     -3.449781   -2.959004   -0.538692
H     -3.724732   -1.693043   -1.842296
H     -2.247850   -2.672280   -1.884385
H      4.213980    0.245528    1.366928
H      1.466679    2.697268   -0.582935
H      0.180703    3.915636   -0.544242
H      1.981002    0.962635    2.136153
H      0.088860    1.467967   -1.899677
H     -1.285877    2.537356   -1.561440
H     -1.790217   -0.235479    2.470265
H     -0.345719   -1.243022    2.274663
H     -2.792883   -1.989375    1.463348
H     -1.322918   -2.604342    0.676602
H      2.433837   -1.767387   -1.929770
H      0.132973   -1.122823   -2.480000
H     -0.296183   -2.271960   -1.201450
H     -1.410451    1.922410    2.079801
H      0.110510    1.360067    2.850197
H     -2.182034    1.192903    0.033010
H     -1.873105   -0.127526   -2.085633
H      5.244455   -0.703271   -1.396481
