45

C     -3.312044    2.698788   -0.551451
C     -3.182272   -0.213856    0.929747
C      3.198985    2.159886    0.921539
C      1.833955    2.105427    0.817252
C      3.391091    0.021769   -0.103206
C      1.344486   -1.211484   -0.856362
C     -0.954488    2.051231   -0.063942
C     -2.126371    1.829504   -0.989862
C     -2.231269   -0.376020   -0.241751
C      2.012201   -0.062739   -0.223321
C      4.019202    1.129344    0.469500
C      1.234400    0.975423    0.236356
C     -0.802071   -0.412181    0.242564
C      0.266032   -2.574380    0.792857
C     -0.707487   -2.272905   -1.386723
C     -0.727857   -4.333220   -0.367094
C     -0.002473   -1.569733   -0.280270
N     -0.058915   -3.806893    0.751913
N     -1.033287   -3.485975   -1.439010
N     -0.166223    0.875530    0.131982
N      5.426714    1.204423    0.586869
O      0.933457   -2.148587    1.958682
O     -1.037604   -1.465945   -2.495204
O     -1.054932   -5.545672   -0.421559
O      6.187499    0.167777    0.128460
O      5.973468    2.184554    1.093149
O     -2.458219    0.543216   -1.234907
H     -4.166416    2.503097   -1.195022
H     -3.507012    2.582534    0.530702
H     -2.987301    3.748641   -0.712681
H     -4.145815    0.236667    0.622212
H     -3.407002   -1.155383    1.439828
H     -2.716033    0.462317    1.693243
H      3.679732    3.018944    1.364841
H      1.187748    2.885945    1.151273
H      4.027406   -0.775834   -0.453134
H      2.002193   -2.110682   -0.779038
H      1.195598   -0.965371   -1.954019
H     -1.400115    2.430065    0.903578
H     -0.305838    2.874967   -0.405447
H     -1.814273    2.291117   -1.975947
H     -2.451175   -1.368795   -0.676203
H     -0.873110   -0.583280    1.364323
H      0.859210   -2.681276    2.823028
H     -1.143775   -1.860955   -3.421025
