38

C      2.498727   -1.818282    1.967861
C     -0.000299    3.221527   -0.377587
C     -2.376348   -2.928151   -0.353017
C      2.498362    0.355044    0.639242
C     -1.772528    1.565417   -0.164704
C      1.976566    1.157793   -0.482544
C     -2.113818    0.430444   -1.049345
C      0.836184   -1.344827    0.207069
C      1.879619   -0.945295    0.885337
C     -0.317061    1.788190   -0.016363
C     -1.775845   -1.790352    0.043705
C      0.554957    0.911919   -0.853437
C     -1.269065   -0.800805   -0.945997
C      0.205531   -0.534959   -0.847396
C     -1.672408   -1.627889    1.483659
O     -1.134165   -0.619750    1.997164
O     -2.171813   -2.594665    2.353903
H      3.116641   -1.221765    2.644880
H      3.190312   -2.500525    1.407562
H      1.740389   -2.437644    2.448546
H      0.688165    3.294973   -1.243304
H     -0.939568    3.705389   -0.704038
H      0.361444    3.809062    0.494116
H     -2.461185   -3.066577   -1.417119
H     -2.747715   -3.652814    0.350709
H      3.593546    0.156093    0.457088
H      2.498776    0.900084    1.620382
H     -2.235390    1.555592    0.845797
H     -2.278541    2.473490   -0.640780
H      2.089418    2.246686   -0.200604
H      2.645479    1.043913   -1.373850
H     -3.176535    0.110742   -0.967154
H     -2.017604    0.813341   -2.110199
H      0.429073   -2.329700    0.446195
H      0.038156    1.662794    1.047961
H      0.429631    1.277227   -1.912849
H     -1.476880   -1.329054   -1.948997
H      0.665791   -0.936668   -1.813195
