48

C      6.706672   -0.038928    0.364718
C      5.767315   -1.060441    0.374487
C      6.258334    1.240426    0.143213
C     -5.909796   -2.006465   -0.159456
C      4.431470   -0.817023    0.171657
C      4.926455    1.485041   -0.060345
C     -5.532924   -0.673900   -0.261916
C     -5.004279   -2.969452    0.260373
C      1.886087   -0.040890   -1.297239
C      1.766703    0.680858    1.032720
C      0.486828   -0.469058   -0.880722
C      0.396543    1.282714    0.753545
C     -3.917451    1.132299   -0.073588
C     -1.930778   -0.797967    0.812670
C      3.986975    0.475621   -0.051249
C      2.555637    0.798722   -0.264255
C     -4.220304   -0.309568    0.064708
C     -3.315658   -1.261177    0.481700
C     -3.703969   -2.569550    0.577677
C     -1.622710    0.297525   -0.161729
C     -2.485651    1.481229    0.226938
F     -2.799854   -3.489510    0.987639
N     -0.260525    0.627962   -0.336830
O     -2.088195    2.644118   -0.438043
H      7.768525   -0.247711    0.530278
H      6.111276   -2.060012    0.548046
H      6.968191    2.050912    0.132360
H     -6.917455   -2.335901   -0.403322
H      3.663404   -1.595540    0.172458
H      4.649018    2.524980   -0.229283
H     -6.264658    0.030474   -0.587219
H     -5.286767   -4.015337    0.343316
H      1.841706    0.529738   -2.260726
H      2.441735   -0.974903   -1.515380
H      2.224173    1.319851    1.823352
H      1.628104   -0.352671    1.344440
H      0.504578   -1.298725   -0.168683
H     -0.022852   -0.812681   -1.802424
H     -0.173870    1.264906    1.696343
H      0.565698    2.341700    0.474418
H     -4.091488    1.455749   -1.141527
H     -4.632792    1.762410    0.518059
H     -2.032758   -0.392151    1.864973
H     -1.222761   -1.635888    0.795392
H      2.468227    1.864113   -0.556666
H     -2.040477   -0.050180   -1.154880
H     -2.398678    1.592104    1.333019
H     -2.127006    3.392174    0.241274
