57

C     -3.201210    5.713725   -0.279676
C     -5.719758   -1.677911   -0.683309
C     -1.436293   -5.146493    0.010102
C      5.486630   -0.289853    0.552414
C      5.149047   -1.318407   -0.508062
C      4.495603    0.840787    0.387144
C     -1.075887    3.955390    0.065217
C     -0.050429    3.056635    0.231661
C      3.652582   -1.425719   -0.712393
C      2.097336    1.315293    0.582054
C     -2.585100    2.108506   -0.178522
C     -3.109994   -0.635938   -0.262266
C     -1.028643   -2.399513    0.074680
C      1.611632   -1.503407    0.499030
C      3.147656    0.317112    0.885782
C     -2.337980    3.474202   -0.139016
C     -0.283699    1.693056    0.194431
C      0.750025    0.788854    0.361791
C     -1.569015    1.192401   -0.013587
C     -1.841070   -0.159822   -0.057547
C     -0.764524   -1.041478    0.116690
C      0.513566   -0.559644    0.323437
C     -3.317218   -1.998079   -0.295132
C     -2.291456   -2.913365   -0.129043
N      2.925298   -0.995855    0.434759
O     -3.422628    4.319118   -0.315029
O     -4.589587   -2.545399   -0.500384
O     -2.549244   -4.291304   -0.170061
Cl     0.692083    0.000000    0.000000
H     -4.129893    6.278812   -0.455869
H     -2.810253    5.935722    0.750508
H     -2.399371    5.966201   -1.003572
H     -5.526675   -0.978182   -1.536421
H     -6.615680   -2.299478   -0.879698
H     -5.889672   -1.052340    0.212002
H     -1.686531   -6.204429   -0.059911
H     -0.689955   -4.937672   -0.811582
H     -0.896969   -4.944060    0.960656
H      5.272593   -0.759299    1.540364
H      6.530080    0.047407    0.483901
H      5.616989   -2.273563   -0.235255
H      5.584207   -0.959809   -1.462564
H      4.750956    1.724584    1.017111
H      4.445365    1.100170   -0.689806
H     -0.872150    5.032942    0.097811
H      0.950368    3.432648    0.393080
H      3.338334   -0.950323   -1.654464
H      3.443649   -2.522990   -0.845246
H      2.023059    2.050213    1.430660
H      2.446281    1.918325   -0.304851
H     -3.587780    1.744668   -0.340822
H     -3.976420   -0.023076   -0.402428
H     -0.237719   -3.136375    0.203510
H      1.475505   -2.073181    1.442005
H      1.516483   -2.264345   -0.333730
H      3.269558    0.274537    2.009446
H     -0.692083    0.000000    0.000000
