55

C      6.034825    2.076436   -0.421152
C      6.594561    0.924845    0.087162
C      4.695668    2.149434   -0.653067
C     -5.447712   -0.690904   -0.854772
C      5.733264   -0.114194    0.336505
C      3.844812    1.096615   -0.397064
C     -4.487075   -1.379442   -1.546105
C     -5.065613    0.304732    0.055275
C      2.484951   -0.978090    1.476518
C      2.903768   -1.833988   -0.863978
C     -4.922479    3.402095    1.258947
C      1.152744   -0.465123    1.057567
C      1.469038   -2.117111   -0.577553
C     -4.043943    2.406382    1.937781
C     -2.111596   -1.883457   -2.138514
C     -1.367651    0.279667   -0.159684
C      4.371674   -0.064066    0.109541
C      3.481316   -1.231286    0.401836
C     -3.133451   -1.095871   -1.349901
C     -2.798596   -0.114378   -0.451188
C     -0.546006   -0.937153   -0.572052
C     -0.850093   -1.046738   -2.075690
C     -3.748433    0.619265    0.281079
F     -4.171371    4.239632    0.449254
N      0.848372   -0.779008   -0.346403
O      0.174858   -1.462929   -2.855014
O     -3.303412    1.561580    1.141493
H      6.689577    2.909146   -0.626415
H      7.665461    0.868344    0.271914
H      4.267073    3.077517   -1.059281
H     -6.498858   -0.920763   -1.016161
H      6.141092   -1.037600    0.737833
H      2.773853    1.212865   -0.603529
H     -4.709821   -2.159417   -2.262905
H     -5.876959    0.778413    0.565327
H      2.335511   -1.891301    2.121440
H      2.937825   -0.231873    2.188273
H      3.415449   -2.766446   -1.152141
H      2.971526   -1.139151   -1.724076
H     -5.317601    4.103823    2.064838
H     -5.806115    3.013606    0.763893
H      0.390154   -0.825261    1.747788
H      1.164621    0.643022    1.113828
H      1.441654   -2.642685    0.416398
H      0.923040   -2.704061   -1.271269
H     -4.732019    1.841267    2.647439
H     -3.387709    2.971531    2.679654
H     -2.475650   -1.904910   -3.179165
H     -1.939707   -2.871049   -1.697800
H     -1.095480    1.165474   -0.743861
H     -1.329497    0.428235    0.939207
H      4.167638   -2.035589    0.813886
H     -0.939328   -1.802409   -0.034620
H     -1.191619   -0.015762   -2.437376
H      0.223465   -0.931913   -3.685904
