57

C     -5.191683    3.413925    0.578113
C     -5.323968   -2.309385    0.655579
C     -0.553427   -5.100183    0.033398
C      5.245694    0.719655    0.580988
C      5.505954   -0.584582   -0.137593
C      4.473670    1.652407   -0.326239
C     -1.550611    3.928744    0.077400
C     -0.385350    3.191007   -0.072850
C      4.226840   -1.062019   -0.737838
C      2.002854    1.864121   -0.385880
C     -2.785752    1.909664    0.266874
C     -2.858279   -0.870733    0.305261
C     -0.562173   -2.315831    0.008129
C      1.934899   -1.043178   -0.339674
C      3.169294    0.996945   -0.737524
C     -2.764449    3.313036    0.248848
C     -0.422538    1.799818   -0.052889
C      0.745821    1.098558   -0.204320
C     -1.640703    1.167098    0.119345
C     -1.656895   -0.220769    0.136137
C     -0.479120   -0.952473   -0.016283
C      0.689772   -0.255087   -0.182381
C     -2.879704   -2.269582    0.321783
C     -1.728294   -3.016981    0.172928
N      3.133884   -0.304254   -0.160353
O     -3.943764    4.006522    0.401349
O     -4.082407   -2.922996    0.491493
O     -1.783736   -4.405300    0.193778
Cl     0.690564    0.000000    0.000000
H     -5.946563    4.242789    0.691263
H     -5.414474    2.790427   -0.314392
H     -5.180192    2.814229    1.519818
H     -5.231455   -1.492684    1.385977
H     -5.691740   -1.859063   -0.296944
H     -6.078635   -3.010844    1.076928
H     -0.083659   -4.755126   -0.933839
H      0.171966   -4.819903    0.824034
H     -0.703663   -6.198157    0.042819
H      6.237682    1.158312    0.807467
H      4.693705    0.544788    1.526348
H      5.914381   -1.359022    0.553407
H      6.265258   -0.418230   -0.928580
H      4.224472    2.551036    0.307269
H      5.092335    1.939470   -1.185164
H     -1.517802    5.004292    0.061292
H      0.546978    3.703887   -0.204225
H      4.071356   -2.154588   -0.646469
H      4.236234   -0.796765   -1.835754
H      1.838445    2.551483   -1.267538
H      2.199593    2.468618    0.507371
H     -3.741295    1.465757    0.401379
H     -3.809542   -0.394135    0.429274
H      0.335860   -2.916705   -0.108883
H      1.918692   -1.803985    0.497802
H      1.910637   -1.548738   -1.304388
H      3.205598    0.864707   -1.859111
H     -0.690564    0.000000    0.000000
