45

C      4.712408   -0.312631    2.195389
C     -4.135678    3.690382   -0.537575
C      4.322476    0.636925    1.064463
C     -1.218116   -4.595524   -0.616834
C     -2.464365   -4.016510   -0.627060
C     -0.095767   -3.797725   -0.589490
C     -2.605192   -2.622280   -0.611045
C      0.835622    2.494321   -0.675441
C      1.613226    1.852915    0.485571
C      1.066307   -1.671702   -0.495589
C     -1.655776    2.389016   -0.613247
C     -0.204373   -2.411516   -0.572332
C     -0.466264    1.730140   -0.654410
C     -1.467396   -1.857750   -0.584787
C      0.982076   -0.214830   -0.767870
C     -2.799837    1.675890   -0.579195
C      3.235875   -0.010273    0.275813
C     -0.359068    0.360448   -0.664694
C     -1.544880   -0.387949   -0.628355
C     -2.752671    0.263527   -0.586367
N      1.974677    0.541337    0.010061
O      3.538462   -1.171987   -0.171764
O     -3.942917   -0.417789   -0.550338
O     -4.018174    2.283474   -0.535897
H      4.240983    0.064093    3.131930
H      5.814730   -0.301444    2.287757
H      4.323988   -1.315652    1.943835
H     -3.525964    4.158082    0.271624
H     -3.760483    4.113717   -1.493060
H     -5.206484    3.971639   -0.451090
H      5.223552    0.707229    0.387871
H      4.101953    1.620595    1.454397
H     -1.128532   -5.660806   -0.632875
H     -3.353391   -4.601016   -0.647739
H      0.855570   -4.287532   -0.581600
H     -3.595139   -2.224200   -0.623904
H      0.682632    3.560117   -0.534721
H      1.367574    2.207215   -1.595169
H      2.423772    2.483496    0.823732
H      0.915702    1.674106    1.352164
H      1.755093   -2.183126   -1.223992
H      1.495535   -1.844622    0.526558
H     -1.658934    3.472087   -0.607752
H      1.320901   -0.041294   -1.854827
H     -4.843712   -0.002594   -0.520249
