42

C     -4.672350   -0.688600    0.865024
C      3.630679   -3.827600    0.101162
C      1.304852    4.611948   -0.137269
C      2.475638    3.887316   -0.201964
C      0.099652    3.950611   -0.038723
C      2.491760    2.501851   -0.173398
C     -1.413909   -2.389689   -0.186338
C     -2.514080   -1.546001   -0.721644
C     -1.198151    1.888232    0.211797
C      1.069882   -2.342491   -0.075747
C     -3.515258    0.257019    0.659709
C      0.102551    2.573470   -0.007436
C     -0.112039   -1.620374   -0.160954
C      1.276532    1.857161   -0.075942
C     -1.258788    0.560082   -0.430808
C      2.299140   -1.764873   -0.037326
C     -0.036596   -0.257967   -0.209275
C      1.214450    0.402075   -0.168194
C      2.357447   -0.365143   -0.084962
N     -2.435240   -0.198955   -0.134543
O     -3.574239    1.389820    1.201898
O      3.595012    0.199476   -0.043993
O      3.488581   -2.442241    0.044406
H     -4.317614   -1.610637    1.363405
H     -5.154755   -0.895156   -0.104841
H     -5.399681   -0.220726    1.551095
H      4.704548   -4.077941    0.195686
H      3.029690   -4.219122    0.949667
H      3.235533   -4.247801   -0.855834
H      1.281453    5.693052   -0.160172
H      3.407961    4.434042   -0.277531
H     -0.829772    4.517331    0.012639
H      3.448027    2.054472   -0.238582
H     -1.277286   -3.284066   -0.802641
H     -1.640298   -2.625492    0.878456
H     -2.444449   -1.450255   -1.825090
H     -3.483664   -1.999052   -0.447370
H     -1.999721    2.538205   -0.174574
H     -1.384854    1.804850    1.330488
H      0.997417   -3.414525   -0.038825
H     -1.282016    0.711484   -1.568664
H      4.433953   -0.343794    0.017209
