42

C     -4.636233   -0.947167   -0.739945
C      3.674426   -3.571939   -0.589258
C      0.981085    4.698216    0.495203
C      2.191327    4.069085    0.472924
C     -0.144886    3.940139    0.353204
C      2.285763    2.679437    0.310940
C     -1.186895   -2.454369   -0.033849
C     -2.306105   -1.772741    0.700090
C     -1.324377    1.800994   -0.078017
C      1.244487   -2.266957   -0.212631
C     -3.509270    0.015193   -0.488463
C     -0.102029    2.559667    0.187704
C      0.042982   -1.614908   -0.023071
C      1.135635    1.946839    0.172661
C     -1.258181    0.443775    0.501570
C      2.388752   -1.538265   -0.218380
C      0.010293   -0.253788    0.156564
C      1.196506    0.485082    0.143555
C      2.407999   -0.142680   -0.041752
N     -2.382441   -0.407674    0.215065
O     -3.651202    1.163618   -0.934523
O      3.631676    0.485449   -0.068973
O      3.614380   -2.169867   -0.404938
H     -4.276433   -1.821729   -1.317049
H     -4.996360   -1.245407    0.288185
H     -5.473201   -0.451436   -1.242981
H      3.119079   -4.099151    0.210367
H      3.295164   -3.843431   -1.605828
H      4.739177   -3.888481   -0.570788
H      0.942020    5.768408    0.623086
H      3.111278    4.644095    0.581873
H     -1.114254    4.390716    0.364748
H      3.245536    2.278483    0.313818
H     -1.465362   -2.685804   -1.092239
H     -0.966551   -3.402092    0.497199
H     -2.062672   -1.794629    1.784657
H     -3.265138   -2.290264    0.550598
H     -2.172251    2.410747    0.323181
H     -1.419327    1.690570   -1.190574
H      1.251407   -3.348589   -0.353247
H     -1.284190    0.533090    1.653618
H      4.488384    0.007766   -0.205335
