94

C      2.895712   -0.420701    2.294214
C      2.241025    2.356884   -0.923383
C     -1.104978    1.583200    1.983038
C      4.946604    2.072555   -2.025980
C     -3.898197   -1.642063    3.372087
C     -4.553044   -1.233994   -0.502381
C    -10.240539   -1.617257   -3.008780
C    -11.386857   -0.885702   -3.097085
C     -9.403959   -1.423403   -1.923671
C    -11.760617    0.044209   -2.156325
C     11.600406    0.366901   -2.232115
C     12.943776    0.297994   -1.893939
C      1.507585    0.598643    0.607684
C      0.405101   -0.300747    2.606313
C      3.971974    0.743495   -0.079166
C     11.120826   -0.966966   -0.348754
C     -7.813071   -0.607941    0.781752
C      8.306826   -0.900004   -0.903667
C      1.573760   -0.001629    1.737733
C      2.571347    0.980449   -0.310391
C     -0.954634    0.114159    2.203156
C      4.906822    0.784783   -1.279421
C     -3.663273   -0.624716    2.253019
C     10.669665   -0.277040   -1.446195
C     -9.735682   -0.494779   -0.942780
C     -9.111820   -0.100136    0.218857
C    -10.920421    0.226682   -1.082598
C     -6.696015   -0.045892   -0.043027
C     13.413444   -0.389200   -0.797383
C      9.252959   -0.200262   -1.773767
C     12.465790   -1.028733   -0.020073
C      6.899806   -0.601718   -1.342423
C     -9.930942    0.860681    0.770397
C     -6.678044    1.454602   -0.051394
C     -1.534896   -0.769850    1.191076
C     -5.013999   -0.280931    1.733803
Br    -9.585006    1.770993    2.417699
N     -6.850646    2.085012   -1.158953
N     -2.805353   -1.082960    1.260519
N    -11.006747    1.039447   -0.026321
N     -5.399635   -0.540923    0.420541
O     14.775883   -0.422763   -0.507966
O      8.820292    0.438888   -2.763082
O     12.923970   -1.724776    1.088059
O      6.306881   -1.335728   -2.127936
O     -6.483999    2.225641    1.075101
O     -0.816653   -1.323361    0.120000
O     -5.774011    0.273447    2.599475
O      6.228175    0.501590   -0.880021
H      3.636348    0.341474    2.434417
H      2.660659   -0.665777    3.409099
H      3.214677   -1.428795    1.966643
H      1.105532    2.402667   -0.836493
H      2.422707    2.377177   -1.979431
H      2.584843    3.201166   -0.357528
H     -0.141822    2.129411    2.122012
H     -1.784974    2.057210    2.759878
H     -1.553022    1.855791    1.026705
H      4.656978    2.944908   -1.438064
H      4.442568    2.007784   -3.033428
H      6.021533    2.318507   -2.343309
H     -3.019278   -1.795686    4.007764
H     -4.771281   -1.418191    3.981923
H     -4.082549   -2.606185    2.852683
H     -3.671812   -0.642497   -0.855811
H     -5.143246   -1.410207   -1.460080
H     -4.244370   -2.253108   -0.159320
H     -9.951597   -2.359939   -3.767718
H    -12.051205   -1.028914   -3.944302
H     -8.491455   -1.983452   -1.820069
H    -12.698032    0.607545   -2.277399
H     11.310301    0.928261   -3.109984
H     13.676137    0.810414   -2.519049
H      0.445060    0.890896    0.266363
H      0.372695   -1.425165    2.817969
H      0.591833    0.185539    3.627593
H      4.171005   -0.305434    0.299153
H      4.484509    1.400135    0.666133
H     10.377685   -1.467320    0.253651
H     -7.846110   -1.712276    0.636819
H     -7.770401   -0.418365    1.849861
H      8.355931   -0.573655    0.174536
H      8.478478   -1.981876   -0.911099
H      2.327529    0.332409   -1.244630
H     -1.593943   -0.098542    3.153337
H      4.596508   -0.020043   -1.963969
H     -3.324449    0.300513    2.815835
H     -6.791295   -0.383531   -1.114521
H     -7.004709    1.561798   -2.056531
H    -11.786806    1.709244    0.156025
H     15.411102    0.057416   -1.101524
H     12.233513   -2.195460    1.662408
H     -6.127080    3.158574    0.962185
H     -1.354289   -1.633062   -0.694281
