91

C     -4.914720   -1.610486   -0.906115
C     -2.696319    0.619584    2.441203
C     -4.884159   -4.040778    0.683747
C     -1.954769    3.681455    1.876070
C     -1.796373   -1.933107   -2.745256
C      1.886759   -0.306000   -1.680934
C      5.107909   -2.845096   -1.166728
C      6.342895   -2.488753   -0.672893
C      4.001172   -2.493475   -0.433271
C      6.456754   -1.794565    0.533071
C      3.213803    3.253883   -0.538174
C      4.341171    3.870987   -0.983805
C     -4.467972    0.184218    0.671187
C     -3.579206   -1.956689    1.281320
C     -4.017238    2.419786    1.544056
C      2.028678    3.767505   -2.484682
C      1.694084   -1.554443    1.508489
C     -0.255517    2.506306   -1.416882
C     -4.314799   -1.091602    0.383662
C     -4.004212    0.919104    1.821285
C     -3.556173   -3.423823    0.969662
C     -2.795883    2.946298    0.848963
C     -1.360549   -2.076514   -1.262099
C      2.020037    3.176710   -1.263380
C      4.066561   -1.796911    0.779540
C      3.103990   -1.357072    1.698411
C      5.308349   -1.454458    1.251394
C      0.855121    2.462981   -0.681019
C      0.856389   -0.721916    0.619752
C      4.328671    4.464058   -2.225369
C      3.177404    4.411399   -2.970197
C     -1.541787    1.875251   -1.051159
C      3.796529   -0.762163    2.707717
C     -2.484252   -3.878914    0.053077
C      0.808368    0.688381    1.046847
C      0.144921   -1.966150   -1.398856
Br     3.216665    0.016888    4.344822
N     -1.741446   -3.300453   -0.720602
N      5.104175   -0.831752    2.416957
N      0.813624    1.776678    0.497083
N      0.954253   -0.985847   -0.779212
O      5.479016    5.099582   -2.692655
O      3.142451    5.009511   -4.238843
O     -2.049259    1.195116   -2.038124
O     -2.355254   -5.307229    0.154181
O      0.727520    0.742262    2.476439
O      0.648318   -2.875220   -2.159207
O     -2.139001    1.978872    0.153310
H     -4.813118   -0.786096   -1.677730
H     -4.329803   -2.446639   -1.329171
H     -5.992151   -1.772215   -0.840299
H     -1.872193    0.426464    1.778372
H     -2.333164    1.500951    3.076141
H     -2.853251   -0.154902    3.248703
H     -5.685880   -3.299549    0.956818
H     -5.124272   -4.909105    1.374867
H     -5.006283   -4.475071   -0.319378
H     -0.999229    3.207367    2.104747
H     -1.678791    4.724122    1.529354
H     -2.486208    3.862981    2.831962
H     -1.057801   -1.281698   -3.226237
H     -2.742953   -1.364950   -2.728502
H     -1.895648   -2.935459   -3.211810
H      2.645572    0.274828   -1.172235
H      2.350698   -1.111157   -2.343866
H      1.392899    0.348509   -2.423081
H      5.078305   -3.380122   -2.101848
H      7.276644   -2.714862   -1.168870
H      3.047806   -2.796574   -0.831843
H      7.393321   -1.504946    0.942528
H      3.245514    2.787642    0.454435
H      5.257192    3.907459   -0.380934
H     -5.042992    0.765123   -0.095377
H     -2.526828   -1.702450    1.489049
H     -4.107137   -1.884870    2.284082
H     -4.950609    2.598368    0.964747
H     -4.195136    2.919578    2.523271
H      1.183015    3.767829   -3.126860
H      1.217957   -1.473970    2.547445
H      1.453600   -2.650492    1.268795
H     -0.271871    3.035489   -2.370334
H     -4.842268    0.808727    2.606166
H     -3.254076   -3.883669    1.983222
H     -3.192045    3.797476    0.195971
H     -1.735886   -1.193978   -0.731993
H     -0.225345   -1.063077    0.891713
H      5.923508   -0.459835    2.995239
H      6.308485    5.123879   -2.128797
H      3.967348    5.469115   -4.582227
H     -1.856616   -5.861656   -0.513439
H      0.612994    1.568038    3.004419
