101

C     -9.867614    1.528248    0.946476
C      7.163044    0.663218    2.429541
C      7.618477    1.783101   -1.615994
C      4.899310   -0.809880    3.835565
C     11.365662    0.538733   -0.120146
C      1.680793   -2.586228    0.568588
C     -1.645389   -1.821996   -0.061543
C     -9.692282    2.094780   -0.448184
C     -5.487869   -0.265422   -4.469901
C     -5.795290   -1.553623   -4.860927
C     -4.258187   -0.039418   -3.901813
C     -4.919607   -2.593203   -4.699732
C     -5.119472   -0.494199    1.038426
C     -5.184140    1.584957    2.118895
C     -5.326844   -1.140668    2.233798
C     -5.394562    0.958088    3.336192
C      6.384095    0.665889    0.125510
C      4.646029    0.741297    1.836153
C      8.945488    0.701847    0.114178
C     -1.233900   -0.040957   -2.617073
C     -6.058772    1.258807   -1.175443
C      6.085714    0.671380    1.411349
C      7.656426    0.656032   -0.563553
C      4.219062   -0.465017    2.565036
C     10.078087    0.465973   -0.936765
C      0.988030   -1.489964    1.415558
C     -5.045146    0.879785    0.962812
C     -5.462805   -0.404806    3.374365
C     -3.322614   -1.046436   -3.706506
C     -2.055825   -1.074217   -3.206504
C     -3.691534   -2.336275   -4.126442
C     -4.810894    1.551065   -0.332203
C     -1.296471    0.353245   -1.210967
C     -7.252583    1.797150   -0.509805
C     -1.613439   -2.404820   -3.319719
C      2.730760   -0.365339    2.863896
C     -2.501661    0.894791   -0.591140
C      0.419350   -0.538501    0.400515
Br     0.129841   -3.086467   -2.846718
N      1.915926   -0.888378    2.190755
N     -2.614450   -3.096938   -3.863348
N     -3.666526    1.004844   -1.019784
N     -0.789673   -0.696504   -0.273898
O      9.925211   -0.776849   -1.534940
O     -5.676538   -1.016531    4.625100
O     -7.260751    2.453048    0.558683
O      2.436899    0.406561    4.007759
O     -2.312927    1.382869    0.741233
O      1.145297    0.494671    0.174236
O     -8.533167    1.592864   -1.069560
H    -10.888539    1.094304    1.078744
H     -9.075790    0.758868    1.081148
H     -9.758589    2.280086    1.750700
H      7.649409   -0.293565    2.600303
H      7.834008    1.527513    2.225338
H      6.693412    0.948559    3.427297
H      6.592136    2.108909   -1.803013
H      8.204616    2.659364   -1.224541
H      8.160922    1.469291   -2.528181
H      4.859533    0.063955    4.550871
H      4.233055   -1.583368    4.361202
H      5.886261   -1.264335    3.758150
H     11.586227   -0.472969    0.296369
H     11.247179    1.295981    0.702633
H     12.166043    0.868581   -0.782336
H      1.926655   -2.173447   -0.423485
H      0.978850   -3.428894    0.526260
H      2.624190   -2.907762    1.073084
H     -1.983711   -1.755568    1.022978
H     -2.578350   -1.782235   -0.670174
H     -1.180042   -2.812124   -0.127918
H     -9.681948    3.203781   -0.349393
H    -10.596535    1.843113   -1.032406
H     -6.221208    0.542436   -4.619052
H     -6.792174   -1.691425   -5.309661
H     -4.011692    0.994229   -3.622774
H     -5.202829   -3.572740   -5.020985
H     -5.007135   -1.066333    0.103043
H     -5.116000    2.660534    2.093225
H     -5.378490   -2.205030    2.259527
H     -5.495930    1.587761    4.210990
H      5.434854    0.666469   -0.517034
H      4.596224    1.665586    2.471639
H      3.957433    0.883159    0.964791
H      9.190579    1.743920    0.492255
H      9.125116    0.011562    0.941329
H     -1.332761    0.942375   -3.211101
H     -0.116280   -0.254717   -2.821336
H     -6.199392    0.170401   -1.323894
H     -5.954729    1.760332   -2.172412
H      7.706120   -0.291375   -1.243381
H      4.359713   -1.337350    1.858172
H     10.019605    1.238802   -1.716993
H      0.159715   -1.958403    2.002897
H     -4.709587    2.640524   -0.266676
H     -0.487769    1.178073   -1.132634
H     -2.585820   -4.132906   -4.073917
H     10.435622   -1.448993   -1.012003
H     -6.611814   -1.180290    4.920880
H      1.525004    0.422893    4.416511
H     -2.727937    2.291866    1.022950
