44

C     -4.048363   -2.340054   -1.539176
C     -5.411894   -0.581015   -0.552308
C      5.101957   -1.595787    0.531922
C      2.204926    1.835190   -1.537550
C     -2.320002    0.829185   -1.527719
C     -2.628955   -0.580746    0.345589
C     -1.217829    1.389379   -0.906854
C     -1.515572   -0.005345    0.957210
C      3.046396   -0.789273    1.694336
C      0.305071    1.412248    2.520413
C     -4.230685   -0.824793   -1.488151
C      3.877279   -0.727554    0.597670
C      2.490565    0.916547   -0.396543
C     -3.035705   -0.164575   -0.901423
C     -0.785308    0.994809    0.340721
C      0.399689    1.589846    1.018807
C      1.913127    0.005387    1.769348
C      1.654178    0.849945    0.714476
C      3.598044    0.127930   -0.450299
N      4.511554    0.135535   -1.558491
O      0.918987    0.133620    2.755550
H     -4.345376   -2.815996   -0.591707
H     -2.970910   -2.545580   -1.694556
H     -4.656652   -2.785310   -2.365821
H     -6.233465   -1.288688   -0.763637
H     -5.733656    0.473565   -0.572343
H     -5.054126   -0.796547    0.470457
H      5.439669   -1.731344    1.564939
H      5.839138   -1.130666   -0.136260
H      4.741546   -2.559373    0.069681
H      1.758932    1.307517   -2.402439
H      1.654452    2.737797   -1.230628
H      3.215751    2.206207   -1.878146
H     -2.648674    1.153677   -2.516081
H     -3.134022   -1.350544    0.899527
H     -0.669683    2.168731   -1.415120
H     -1.214508   -0.349351    1.939172
H      3.271118   -1.461948    2.512192
H      0.887012    2.214255    3.029185
H     -0.738985    1.401877    2.870175
H     -4.432667   -0.392857   -2.475021
H      0.494140    2.658441    0.736441
H      5.446663    0.594414   -1.496644
H      4.256841   -0.318758   -2.448600
