39

C      4.808846    1.661955   -0.451533
C     -0.731269   -0.166590    1.523151
C     -2.764301    3.128549    1.315654
C      3.719199   -0.573475   -0.595734
C      2.326190    1.343850   -0.402516
C     -3.531571    0.254670    0.159931
C      3.595860    0.811721   -0.482522
C      2.608781   -1.391671   -0.627262
C     -3.427896   -1.198656    0.150042
C      1.176190    0.566981   -0.429588
C     -2.433292    0.988222    0.142289
C      1.350662   -0.797128   -0.542674
C     -2.323055   -1.804619   -0.631046
C      0.150698   -1.634722   -0.573443
C     -1.133286    0.283199    0.113147
C     -1.147199   -0.910834   -0.818285
O      2.658850   -2.758730   -0.736851
O     -4.266269   -1.881527    0.794411
O     -1.961016   -3.054393   -0.126511
O      0.199493   -2.878241   -0.406356
O     -1.048662   -0.418338   -2.135805
O     -2.557801    2.364936    0.151956
O     -0.090938    1.136302   -0.346743
H      5.656720    1.198508   -0.993856
H      5.072307    1.907992    0.606553
H      4.583097    2.640978   -0.938787
H     -1.526085    0.132679    2.266332
H      0.218751    0.279043    1.844588
H     -0.656792   -1.267549    1.589186
H     -3.696894    2.852150    1.841640
H     -1.889381    3.137150    1.991001
H     -2.899865    4.192616    0.978010
H      4.683716   -1.060859   -0.663089
H      2.188097    2.417176   -0.313525
H     -4.498784    0.753465    0.183308
H     -2.751661   -2.004707   -1.656391
H      3.476554   -3.322286   -0.805834
H     -2.480684   -3.776492   -0.565944
H     -0.657310   -1.151323   -2.696748
