52

C      5.030500   -2.656216    1.949067
C      0.261572   -2.919788   -2.943456
C     -4.168987   -0.688542    2.472715
C      5.000107   -1.292940    1.333404
C     -1.886734    3.690506   -0.351754
C     -3.292266    1.842279   -0.620168
C     -2.956645    4.514590   -0.481904
C     -4.397395    2.688265   -0.753516
C     -1.664076   -2.548040    0.513000
C     -0.612434   -2.327878   -0.382520
C     -2.099402   -0.234884    0.707076
C      2.023254    0.963593    0.846706
C      1.049159   -1.746126   -2.530799
C     -2.032548    2.294763   -0.418246
C     -4.227940    4.037610   -0.683670
C     -2.412291   -1.527242    1.064245
C     -1.079392    0.048095   -0.174724
C      1.638718    1.308917   -0.566151
C     -0.362250   -1.021590   -0.693813
C      3.400409    0.382727    0.885014
C     -0.874991    1.459723   -0.425605
C      1.643336    0.136791   -1.472087
Cl    -5.581598    5.152957   -0.844280
N      3.657116   -0.781564    1.318273
N      0.332591    1.952059   -0.528846
N      2.198930   -1.233027   -3.071135
N      2.540068   -0.100009   -2.420734
N      0.748825   -0.890783   -1.566200
O      4.423024    1.184540    0.415868
O     -3.457658   -1.796660    1.958730
H      4.722643   -3.425972    1.224754
H      6.065796   -2.924837    2.279111
H      4.330844   -2.724229    2.804639
H      0.689215   -3.902569   -2.780474
H      0.305055   -2.858959   -4.093245
H     -0.839006   -2.819684   -2.813740
H     -5.000424   -0.972875    3.118393
H     -4.520229   -0.023978    1.630360
H     -3.498263   -0.019163    3.078810
H      5.687691   -0.579019    1.874460
H      5.412323   -1.341772    0.294823
H     -0.881705    4.064715   -0.192382
H     -3.570898    0.785717   -0.760894
H     -2.839789    5.601988   -0.429586
H     -5.405841    2.302180   -0.913787
H     -1.870044   -3.573525    0.760080
H      0.002963   -3.089641   -0.758533
H     -2.632163    0.608982    1.178039
H      2.054022    1.854072    1.504725
H      1.287974    0.268274    1.319319
H      2.355554    2.042651   -0.958215
H      5.303283    0.835518    0.098856
