44

C     -3.133458    3.695376    0.699850
C      2.913903    2.044546    2.088844
C     -3.009640    2.199657    0.549212
C     -2.485545   -1.522050   -1.094128
C     -1.795919   -2.642525   -1.012426
C      3.464309   -0.048237   -2.522892
C     -1.875775    1.587509    0.804784
C     -2.815035   -0.308525   -0.343262
C      3.069329   -0.914752   -1.618881
C     -0.939064   -3.248233    0.005608
C      3.891828    0.956942   -3.268257
C      1.232951   -1.635239   -0.222972
C      2.318090    1.430517    0.857927
C     -1.772560    0.119171    0.651485
C      2.053740   -0.448446   -0.674005
C     -0.594073   -2.389092    1.165182
C      0.172376   -1.169225    0.755384
Br     5.262511    2.004087   -2.548915
Cl     0.530877   -3.349984    2.195854
O      1.537223    2.092255    0.148182
O      2.613499    0.139676    0.485397
O     -0.546138   -0.186912    0.139973
H     -3.060495    4.116794   -0.333613
H     -4.120385    3.919500    1.147072
H     -2.286968    4.025791    1.320454
H      3.861746    1.472437    2.279054
H      3.164569    3.096257    1.825690
H      2.197883    1.956838    2.914866
H     -3.911679    1.694355    0.222226
H     -2.990232   -1.494434   -2.070961
H     -1.865972   -3.274693   -1.890271
H     -1.024711    2.148168    1.125029
H     -3.775595   -0.420649    0.160607
H     -2.883536    0.530973   -1.097438
H      3.547371   -1.845604   -1.694014
H     -1.524527   -4.125637    0.420120
H     -0.027197   -3.755964   -0.425880
H      3.379437    1.021209   -4.184622
H      0.685631   -1.992985   -1.131212
H      1.869275   -2.425853    0.220476
H     -1.974188   -0.283305    1.673901
H      1.386572    0.266122   -1.151290
H     -1.477208   -2.235696    1.772471
H      0.736778   -0.800137    1.655389
