42

C     -1.512824    1.888655   -1.045212
C      0.376344    2.633023    0.268851
C     -5.313865   -1.115431   -0.153859
C     -4.830645    0.022769    0.442887
C     -4.494265   -2.146962   -0.524676
C      5.316164    0.044632    0.455762
C      5.707513   -0.687996   -0.642952
C     -3.477779    0.120538    0.671422
C     -3.147297   -2.010374   -0.279041
C      3.987753    0.111157    0.789718
C      4.781650   -1.350882   -1.405515
C      0.850847    0.112502    1.364710
C     -0.325822    1.388503   -0.307313
C     -2.620543   -0.873263    0.322852
C     -0.539840    0.454760    0.810016
C      2.987970   -0.545738    0.049262
C      3.439340   -1.248481   -1.018991
C     -1.184104   -0.857063    0.510765
C      0.854771   -1.307071   -0.599970
N     -0.402218   -1.464486   -0.538030
N      1.609012   -0.565188    0.287758
S      1.990490   -1.976415   -1.798705
H     -2.055295    1.122518   -1.636471
H     -2.176369    2.531455   -0.432340
H     -1.112634    2.596305   -1.833736
H      1.470290    2.539387    0.222790
H     -0.004547    2.744492    1.302543
H      0.044935    3.558769   -0.273513
H     -6.372259   -1.229983   -0.350425
H     -5.519020    0.833910    0.728549
H     -4.881116   -3.060616   -1.003378
H      6.090980    0.557101    1.034393
H      6.765796   -0.749568   -0.920791
H     -3.130368    1.009728    1.143667
H     -2.517702   -2.846872   -0.584476
H      3.759008    0.709738    1.670875
H      5.044677   -1.947659   -2.290394
H      0.800443   -0.512215    2.257073
H      1.385379    1.046616    1.598560
H      0.401041    1.011513   -1.067639
H     -1.063575    0.959685    1.646576
H     -0.982316   -1.501492    1.424851
