52

C     -5.242366   -1.670091    1.142104
C     -2.599781   -0.236036   -5.530162
C      3.905054    2.234234   -1.807918
C      4.367866    2.129789    3.305300
C      3.248807    1.446918    3.255008
C      5.062529    2.463008    4.582443
C      1.354132    0.363535    2.082831
C      2.959846    1.456399    0.781179
C     -3.021137   -1.228762   -0.542774
C     -2.152487   -0.770543   -2.675922
C     -0.401259   -2.089901    1.435920
C      2.531837    1.095365    2.039926
C     -1.914529   -1.019287   -1.329312
C      0.641250    0.009760    0.941749
C     -0.620382   -0.758461    0.722547
C     -4.323652   -1.195421   -1.061095
C     -3.401772   -0.724342   -3.245713
C      2.294445    1.134106   -0.386883
C     -4.473774   -0.942642   -2.404548
C     -0.567285   -1.051075   -0.756771
C      1.107289    0.392423   -0.289069
O      6.348732    1.937619    4.632233
O      0.729099   -2.650878    0.795048
O     -5.754868   -0.900318   -2.962269
O     -5.413425   -1.415258   -0.218047
O     -3.596609   -0.472190   -4.592911
O      2.722460    1.494719   -1.652318
O      0.275388   -0.043092   -1.307530
H     -4.825056   -2.677565    1.359699
H     -4.611166   -0.865187    1.585833
H     -6.255444   -1.637213    1.637740
H     -1.642551    0.127784   -5.154633
H     -2.458946   -1.199041   -6.103122
H     -2.927348    0.493075   -6.330833
H      4.728565    1.901049   -1.149108
H      3.749322    3.331270   -1.700793
H      4.327899    2.124136   -2.848819
H      4.820394    2.474040    2.392183
H      2.831358    1.122554    4.201425
H      4.463350    2.131197    5.465163
H      5.176801    3.574243    4.649319
H      0.974296    0.056194    3.033450
H      3.874118    2.031650    0.676983
H     -2.972853   -1.433876    0.514781
H     -1.291363   -0.607227   -3.291149
H     -1.219464   -2.796340    1.330758
H     -0.116654   -1.948254    2.495866
H     -1.499924   -0.212662    1.058516
H     -0.055911   -2.019267   -0.969184
H      6.680602    1.720665    3.718992
H      0.740546   -3.624814    0.847106
H     -6.555977   -1.055989   -2.373217
