28

C      3.223142    0.777552    0.572777
C      3.108650   -0.596929    0.598512
C      2.116558    1.491167    0.183888
C      1.939688   -1.237388    0.251242
C     -1.291290   -1.551013    0.690351
C     -2.447085   -0.557914    0.808519
C     -0.179151    1.777457   -0.570409
C     -1.221219   -0.301290   -1.425872
C      0.917245    0.847928   -0.173061
C     -0.444613   -1.225485   -0.515386
C     -1.452396    1.020565   -0.681229
C      0.805673   -0.516622   -0.146777
N     -1.972994    0.783297    0.650876
H      4.138044    1.288577    0.844146
H      3.975096   -1.163685    0.903353
H      2.203439    2.580371    0.162249
H      1.824314   -2.310699    0.262982
H     -0.711414   -1.592870    1.621297
H     -1.767083   -2.540171    0.523085
H     -2.916942   -0.657662    1.797588
H     -3.199846   -0.749139    0.025209
H      0.047687    2.236127   -1.563515
H     -0.238564    2.572839    0.207473
H     -0.548929   -0.060175   -2.286764
H     -2.177778   -0.728178   -1.755009
H     -0.240877   -2.153483   -1.093046
H     -2.212525    1.564842   -1.287132
H     -1.276827    1.001982    1.394649
