34

C      0.867418    1.354434    1.392260
C      3.307313   -0.285166    1.333110
C     -2.697157   -1.392531    1.631402
C     -1.591756    1.381465   -1.622166
C      1.272592    0.728229    0.315258
C      2.649000    0.213934    0.078424
C      0.981013   -1.059337   -1.134783
C     -2.982587    0.430432   -0.308872
C      0.530499    0.362447   -0.921261
C      2.495400   -0.903360   -0.938639
C     -4.102411    0.002370    0.378777
C     -1.725695   -0.060532   -0.017021
F      0.549622   -1.924520   -0.174031
N     -5.370024    0.526026    0.053218
N     -3.926168   -0.922835    1.357385
N     -1.628415   -0.973808    0.963965
N     -2.885672    1.325067   -1.307425
N     -0.871448    0.531727   -0.832550
O      4.572936   -0.737500    1.004233
O      3.008873   -0.487844   -2.163357
H      1.545925    1.535301    2.197041
H     -0.147488    1.688608    1.471311
H      3.368172    0.596685    2.030208
H      2.720312   -1.112185    1.754350
H     -2.603633   -2.128276    2.418736
H     -1.196455    2.024353   -2.403395
H      3.261422    1.058889   -0.343560
H      0.742518   -1.436982   -2.132818
H      0.982998    0.965838   -1.744440
H      2.947404   -1.845404   -0.588111
H     -6.041501   -0.040748   -0.484817
H     -5.632774    1.479097    0.351479
H      5.119297   -0.018324    0.604230
H      2.480470   -0.875554   -2.925683
