43

C     -4.824568    1.432594    1.550785
C     -4.134133    0.182017   -1.955936
C     -0.782236   -2.715517    1.311992
C     -0.265315   -2.665978   -1.076589
C     -4.935494    1.061189    0.119062
C      4.644700   -0.441922    0.623093
C      5.246858    1.802338   -0.057579
C      3.698335   -1.424876    0.791056
C      4.842171    3.033359   -0.571091
C     -3.917747    0.515680   -0.525496
C      4.313482    0.805294    0.117846
C      2.377924   -1.183254    0.453625
C      3.514702    3.220077   -0.890407
C      2.073009    0.058393   -0.044640
C      0.687138    0.317356   -0.401175
C      3.006542    1.075756   -0.227238
C     -0.350610   -0.531617    0.230088
C     -2.659783    0.263139    0.148186
C      0.046430   -1.986515    0.250685
O      3.182448    4.348244   -1.353652
O      0.394717    1.219871   -1.206571
O     -2.510314    0.556691    1.356390
O      2.651541    2.250671   -0.711389
O     -1.553357   -0.309354   -0.480938
O      1.397629   -2.148804    0.608964
H     -5.792507    1.897272    1.890082
H     -4.071208    2.250925    1.717989
H     -4.676625    0.568998    2.219382
H     -5.198319   -0.096439   -2.108579
H     -3.961168    1.106593   -2.545342
H     -3.484061   -0.660608   -2.265240
H     -0.159646   -3.168308    2.087547
H     -1.418950   -3.493332    0.883172
H     -1.471779   -1.983340    1.808917
H     -0.340000   -1.953777   -1.906468
H      0.522239   -3.428651   -1.278090
H     -1.232095   -3.222308   -1.011271
H     -5.883414    1.246975   -0.403988
H      5.678891   -0.597850    0.875564
H      6.258846    1.595271    0.208787
H      3.946460   -2.401508    1.184554
H      5.566239    3.805590   -0.706742
H     -0.426971   -0.200334    1.290653
