39

C      3.690279   -0.535747   -1.209913
C      3.320894   -1.721579    0.859687
C     -2.229504   -1.484852    0.955355
C     -0.456187    0.333461   -1.847003
C     -2.776080    1.620762   -0.718607
C     -3.161051    0.181283   -0.602866
C     -1.738823    2.035965    0.265662
C      1.624153    0.825323    1.290124
C      0.342697    1.581363    1.385483
C      0.446381   -0.892512    0.054354
C      2.917637   -0.725587   -0.162399
C     -2.028445   -0.751501   -0.327577
C      1.663536    0.043642   -0.005522
C     -0.691423    1.198608    0.424815
C     -0.714575   -0.024817   -0.403802
H      3.419422    0.181130   -1.965039
H      4.600915   -1.091158   -1.328295
H      3.518168   -2.727416    0.403194
H      4.288257   -1.394428    1.290708
H      2.528879   -1.854946    1.624587
H     -3.273320   -1.861232    0.977070
H     -1.583007   -2.394989    0.967947
H     -2.094301   -0.850938    1.844293
H     -0.200132    1.406240   -1.974976
H      0.432358   -0.221779   -2.268184
H     -1.305495    0.018485   -2.508672
H     -2.528862    1.939577   -1.754970
H     -3.696072    2.221983   -0.455712
H     -3.913647    0.082316    0.215670
H     -3.698561   -0.088043   -1.551451
H     -1.804401    2.955060    0.831352
H      2.527734    1.453083    1.425136
H      1.605740    0.046732    2.108691
H     -0.036503    1.581789    2.449485
H      0.586799    2.667670    1.194667
H      0.594368   -1.766824   -0.598949
H      0.275812   -1.239418    1.094140
H     -2.011249   -1.527409   -1.147551
H      1.557607    0.780705   -0.830933
