24

C      0.885926   -1.506639   -1.586636
C     -2.933233    0.650369    0.602613
C     -2.304006    1.552561   -0.227986
C     -2.320844   -0.527807    0.991049
C     -1.033313    1.282763   -0.687872
C     -1.048841   -0.766894    0.512654
C      1.875212   -0.473335    0.379548
C      2.060785    0.741019    1.259463
C      0.983198   -0.213167   -0.796262
C     -0.386214    0.120948   -0.325810
Br     2.837541    2.226516    0.350404
H      1.550872   -1.448574   -2.484066
H     -0.146154   -1.642138   -1.999010
H      1.117491   -2.395914   -0.969371
H     -3.930678    0.910487    0.935457
H     -2.767007    2.484059   -0.545362
H     -2.817603   -1.234683    1.643644
H     -0.513800    1.977773   -1.344620
H     -0.579486   -1.692797    0.823670
H      2.864281   -0.859554    0.061505
H      1.404637   -1.256627    1.009493
H      1.120195    1.045065    1.756299
H      2.761114    0.421525    2.078355
H      1.319926    0.605043   -1.437156
