43

C     -2.103533    2.025566    0.941596
C     -3.117021    0.185857    2.144526
C      3.167725    2.079167    2.029785
C     -2.241454   -1.195498   -1.889109
C     -0.933908   -1.655827    0.928915
C     -0.508336   -2.263564   -0.423983
C      1.408526    1.032365    0.673599
C     -1.740488    0.673382    1.572062
C      2.743102    1.266526    0.824088
C     -1.348475   -0.248483    0.549324
C      0.948014    0.276689   -0.435869
C      1.875579   -0.205975   -1.344319
C     -0.460015    0.046049   -0.593388
C      3.677204    0.805706   -0.050502
C      3.253525    0.053342   -1.161893
C      1.474857   -0.989907   -2.511050
C      0.031927   -1.229689   -2.650663
C     -0.789660   -1.190423   -1.449127
Br     5.523824    1.138317    0.171325
O      4.193290   -0.402983   -2.030826
O      2.266030   -1.442881   -3.353789
O     -0.486800   -1.462148   -3.764920
H     -1.276331    2.759537    1.018000
H     -2.962372    2.497935    1.468596
H     -2.338411    1.901778   -0.124955
H     -3.759713   -0.149362    1.318472
H     -2.947801   -0.585997    2.904165
H     -3.536496    1.073646    2.660593
H      2.689536    1.641195    2.939949
H      4.258063    1.996903    2.196092
H      2.871948    3.127462    1.922837
H     -2.315369   -1.601292   -2.949468
H     -2.857025   -1.901359   -1.304261
H     -2.605433   -0.172458   -1.956659
H     -0.147325   -1.709244    1.673779
H     -1.782029   -2.274517    1.287497
H      0.556640   -2.500629   -0.373933
H     -1.095566   -3.173417   -0.657728
H      0.653429    1.389159    1.335154
H     -1.169093    0.875238    2.461450
H     -2.356884   -0.478551    0.003839
H     -0.905401    0.900509   -1.170044
H      4.191718   -0.912122   -2.829160
