25

C     -0.133185   -1.847826    0.188763
C     -3.230630    1.073759   -0.142297
C      1.122957   -1.100198    0.527320
C     -1.953025    1.323794   -0.597568
C     -2.515618   -1.086741    0.538537
C      3.614371    1.345130   -0.389882
C     -1.234257   -0.856068    0.090101
C     -3.514766   -0.154128    0.435740
C     -0.947328    0.360965   -0.484296
C      1.443390   -0.023769   -0.455930
C      2.338393    1.014841    0.211430
F     -4.775767   -0.406468    0.887352
O      3.536809    0.554736    0.795205
O      0.327784    0.656237   -0.957271
H     -0.056649   -2.350604   -0.793206
H     -0.358654   -2.566040    0.998761
H     -4.017635    1.812930   -0.225123
H      1.001864   -0.648447    1.531767
H      2.003531   -1.775621    0.597970
H     -1.721579    2.284226   -1.052236
H     -2.754403   -2.045400    0.994516
H      4.062975    2.356492   -0.172000
H      3.966392    0.789156   -1.264863
H      1.996520   -0.460919   -1.315188
H      1.798511    1.749963    0.863141
