39

C      3.008531    1.403780    1.209054
C      4.184405    0.224542   -0.581660
C     -1.863057    1.110234    1.814295
C     -0.809872    0.858122   -1.763123
C     -3.052715   -1.259370    0.724879
C     -3.258178    0.074609    0.013625
C     -1.840513   -1.872211    0.140593
C      1.613603   -1.331036   -0.389309
C      0.320788   -1.878103   -0.894767
C      0.460154    0.712884    0.385126
C      2.925639    0.650734    0.127792
C     -2.030987    0.904516    0.325243
C      1.615897    0.201230   -0.426917
C     -0.860024   -1.153552   -0.324633
C     -0.835851    0.309245   -0.327904
H      3.980722    1.700555    1.564752
H      2.114347    1.709910    1.720490
H      4.095405    0.604018   -1.611468
H      5.063439    0.621643   -0.036502
H      4.244288   -0.878767   -0.634380
H     -1.234323    2.012070    1.947645
H     -2.873619    1.378352    2.210859
H     -1.511368    0.225951    2.347026
H     -0.428953    0.077568   -2.432133
H     -1.850886    1.092771   -2.109432
H     -0.258038    1.811010   -1.811377
H     -3.915615   -1.913482    0.563084
H     -2.959733   -1.113169    1.820812
H     -3.230411   -0.158228   -1.074108
H     -4.196613    0.559149    0.333417
H     -1.819448   -2.984561    0.124220
H      2.414823   -1.637810   -1.122658
H      1.916895   -1.711861    0.589406
H      0.296433   -1.794810   -2.003393
H      0.292943   -2.963337   -0.660841
H      0.518567    1.818223    0.480852
H      0.452972    0.185052    1.358491
H     -2.246093    1.929738   -0.097491
H      1.556447    0.474391   -1.499566
