37

C     -4.366323    0.568505    0.854479
C     -3.195070   -1.533586    1.261543
C      5.883765    0.248848    0.727124
C     -2.611297   -0.208310   -1.308659
C      3.796303   -0.308668   -0.485234
C      3.625039    1.121626    1.380202
C     -3.031983   -0.056664    1.147426
C      4.394963    0.362937    0.544024
C      2.415821   -0.189643   -0.638614
C      1.656943    0.569404    0.203804
C      0.192316    0.696837    0.143731
C      1.805292   -0.860497   -1.768047
C     -1.785794    1.735168    0.029521
C     -2.084476    0.300910    0.020184
N      2.305106    1.219435    1.213592
N     -0.381398    1.876333    0.076916
N     -0.793221   -0.313641    0.200814
O      2.512094   -1.579775   -2.507639
O      0.479085   -0.719051   -2.039895
O     -2.545408    2.754678    0.002958
H     -4.366760    1.354249    0.099657
H     -5.045048   -0.233244    0.430240
H     -4.885564    0.899287    1.796346
H     -2.274700   -2.066652    1.568813
H     -3.593170   -1.929563    0.292322
H     -4.006699   -1.751331    2.003983
H      6.185464   -0.763405    1.008676
H      6.416654    0.562392   -0.189648
H      6.153529    0.933906    1.537377
H     -2.082281    0.353710   -2.103337
H     -2.293762   -1.271249   -1.385965
H     -3.710230   -0.083117   -1.392891
H      4.370293   -0.919543   -1.168327
H      4.092296    1.650132    2.189233
H     -2.591598    0.370005    2.073353
H     -0.566420   -1.329640    0.359756
H     -0.073764   -1.460782   -2.453335
