29

C     -4.119024   -0.480982   -1.140646
C     -3.728949    0.923146    0.774780
C      2.317735   -1.498568    1.228342
C      4.000571   -0.194269    0.187490
C      1.000472   -1.769332    1.432996
C      4.341703    0.843789   -0.652713
C     -0.872438    0.650866   -0.559850
C     -3.248454   -0.022621   -0.261475
C      2.680029   -0.472463    0.398113
C      0.385288    0.015121   -0.025602
C      0.004657   -1.012499    0.805728
C     -1.859920   -0.464319   -0.347879
C      3.305593    1.551351   -1.240430
C      1.709558    0.279304   -0.224778
O      3.584741    2.495804   -2.005237
O     -1.378560   -1.065844    0.833097
O      2.051300    1.273270   -1.029116
H     -3.844798   -1.180574   -1.934911
H     -5.138870   -0.175841   -1.101812
H     -4.328231    0.352534    1.533346
H     -4.399717    1.640271    0.289575
H     -2.907054    1.406455    1.335679
H      3.110974   -2.077349    1.708429
H      4.752457   -0.780266    0.672977
H      0.711965   -2.586919    2.094512
H      5.359624    1.097555   -0.847050
H     -0.714085    0.894584   -1.616196
H     -1.073021    1.552552    0.015202
H     -1.703544   -1.194754   -1.162219
