33

C     -3.870191    1.312893    1.342965
C      4.862732    1.086312    0.645348
C     -3.979675    1.244333   -0.030876
C     -2.842711    0.618655    1.945652
C      4.121749    0.020104    1.135862
C      4.320444    1.877995   -0.349179
C     -3.069872    0.493205   -0.750527
C     -1.939922   -0.129007    1.210219
C      2.864243   -0.244583    0.638242
C      3.064784    1.584409   -0.820848
C     -2.035424   -0.208011   -0.164641
C      2.305404    0.533410   -0.354040
C     -1.068989   -1.010141   -0.971811
C     -1.294101   -2.451551   -0.844890
C      0.972074    0.257753   -0.885937
N     -2.217077   -2.984394   -0.123172
N      0.252208   -0.712854   -0.465550
O     -0.456843   -3.304576   -1.549624
O      0.445541    1.064993   -1.884765
H     -4.577485    1.899686    1.928605
H      5.856850    1.285105    1.047734
H     -4.792212    1.790018   -0.537978
H     -2.764993    0.680548    3.042420
H      4.581993   -0.577755    1.916171
H      4.929773    2.698686   -0.704262
H     -3.150901    0.435830   -1.828235
H     -1.153820   -0.656263    1.707119
H      2.300197   -1.073364    1.026414
H      2.646704    2.202042   -1.593844
H     -1.146109   -0.709216   -2.045077
H     -2.352559   -4.014511   -0.052878
H     -0.283346   -4.262626   -1.269455
H     -0.528465    1.252876   -1.938168
