29

C      2.804812   -1.298531   -1.370516
C     -0.234148    2.088628    0.780290
C      1.052328    2.573806    0.961918
C      0.562901    0.169744   -0.370512
C     -1.583785   -1.904919    0.823805
C     -0.490738    0.904337    0.125048
C      2.110715    1.841858    0.467520
C     -2.290098   -0.584238    0.983820
C      1.857248    0.646602   -0.194191
C     -1.878254    0.433936   -0.040761
O     -1.799112   -2.419596   -0.443281
O      3.444501    2.268304    0.612235
O     -3.656851   -0.828452    0.783231
O     -2.084381   -0.013592   -1.352046
O      2.903617   -0.083665   -0.686704
H      2.373981   -1.099446   -2.372509
H      2.096713   -1.946801   -0.774399
H      3.741434   -1.863922   -1.418256
H     -1.041874    2.669840    1.170470
H      1.278137    3.493469    1.468793
H      0.439079   -0.767802   -0.895266
H     -0.513255   -1.866518    1.108019
H     -2.064683   -2.612547    1.540895
H     -2.148442   -0.160492    1.973773
H     -2.595290    1.298733    0.086829
H     -0.936629   -2.733664   -0.813899
H      3.660559    3.116136    1.078960
H     -3.790643   -1.272398   -0.094283
H     -1.217841   -0.048808   -1.853163
