34

C     -1.490112    3.336832    0.865012
C      5.438501   -0.859343    0.591345
C     -1.199685    2.303806    0.088478
C     -2.634836   -0.792755    0.973368
C     -1.876625   -0.340312   -1.218257
C     -3.504224   -1.767953    0.472335
C     -2.746733   -1.315630   -1.715157
C      1.253361    1.461280   -0.355102
C      2.504139   -0.893127    0.602593
C     -1.815902   -0.073235    0.130643
C     -3.568779   -2.039191   -0.877852
C     -0.891370    0.961679    0.649281
C      0.517338    0.647208    0.364483
C      1.119263   -0.596265    0.889778
C      2.653331    1.174624   -0.653250
C      3.247957   -0.052189   -0.135237
O     -4.440820   -3.014985   -1.364683
O      0.359608   -1.330977    1.570899
O      3.356594    1.963882   -1.347449
O      4.571007   -0.328833   -0.413651
H     -1.499209    3.184892    1.929197
H     -1.714721    4.312068    0.470669
H      6.424221   -0.989073    0.124167
H      4.981476   -1.824766    0.897783
H      5.474149   -0.196949    1.484417
H     -1.174929    2.397023   -1.000606
H     -2.610907   -0.606223    2.041688
H     -1.235077    0.219178   -1.906028
H     -4.136348   -2.318833    1.152536
H     -2.791989   -1.523797   -2.780583
H      0.859730    2.394332   -0.768567
H      2.941604   -1.792923    0.982070
H     -0.977321    1.042370    1.772945
H     -5.392693   -2.741813   -1.631797
