42

C      3.085918    0.304958    0.597439
C      3.118070   -0.340215   -1.742814
C     -0.284727    3.461965    1.968644
C     -2.999174   -2.052360   -0.042386
C     -1.489403    1.952492    0.230288
C     -2.178608    0.631294    0.378125
C      0.330400   -1.063654   -1.617884
C     -1.084316   -1.466507   -1.489248
C      0.381735    1.130249    1.482314
C      2.377817   -0.511183   -0.432217
C     -0.420734    2.145747    1.246261
C      0.902049   -0.189282   -0.574033
C      0.191123   -0.130790    0.736513
C     -1.243279   -0.502264    0.732903
C     -1.535956   -1.731688   -0.104538
O     -0.817435   -2.812411    0.402740
H      4.184853    0.208115    0.356374
H      2.880009    1.381205    0.561774
H      3.007695   -0.128613    1.629166
H      4.080596   -0.887773   -1.681557
H      3.330144    0.762936   -1.860077
H      2.476828   -0.726998   -2.554227
H     -0.810123    4.214917    1.355738
H     -0.609659    3.399835    3.005701
H      0.803253    3.765875    1.938689
H     -3.462463   -1.835115   -1.033580
H     -3.506862   -1.475942    0.759871
H     -3.147146   -3.134682    0.137352
H     -1.105786    2.165972   -0.771563
H     -2.248049    2.759699    0.431410
H     -2.650507    0.376942   -0.591266
H     -3.013568    0.755993    1.099130
H      0.441984   -0.633708   -2.662066
H      0.943006   -2.014954   -1.686364
H     -1.240210   -2.434067   -2.060676
H     -1.791296   -0.766816   -2.025849
H      1.163178    1.279966    2.234894
H      2.499933   -1.584334   -0.147365
H      0.880290    0.850089   -0.974981
H      0.720200   -0.910751    1.374949
H     -1.545466   -0.810288    1.760030
H     -0.614313   -3.403854   -0.367615
