29

C     -0.772322    0.535118    1.803468
C     -1.462315   -0.971615   -1.515765
C     -2.788776   -0.137561    0.219802
C      3.479504   -1.017770    0.001059
C      3.239662    0.300895    0.312637
C      2.438244   -1.893382   -0.201265
C      1.915365    0.698675    0.411259
C      1.145611   -1.511390   -0.106718
C      0.873968   -0.171803    0.209488
C     -0.721304    1.535942   -0.441323
C     -0.503029    0.294743    0.312959
N     -1.477417   -0.692942   -0.104470
O     -1.595939    1.568400   -1.371173
O     -0.039657    2.710566   -0.222276
H     -1.501343   -0.166388    2.221421
H      0.148496    0.447646    2.413252
H     -1.136210    1.576443    1.949213
H     -1.620297   -2.078487   -1.681230
H     -0.578265   -0.596601   -2.039533
H     -2.349860   -0.522115   -2.054126
H     -3.354918   -0.791032    0.914936
H     -2.729595    0.852679    0.688891
H     -3.417919   -0.007991   -0.697510
H      4.524232   -1.317895   -0.073859
H      4.038059    1.016265    0.477900
H      2.676175   -2.913108   -0.442228
H      1.761752    1.752729    0.672011
H      0.287121   -2.135116   -0.247756
H     -0.479021    3.635096   -0.288656
