41

C      4.097317    0.641026   -1.319849
C      4.305698   -0.642261    1.927589
C      1.080488    1.710433   -0.849690
C      3.270618   -0.587556   -1.198764
C      3.494379   -1.605004    1.088404
C     -5.107358   -1.149365   -1.629900
C     -3.829680   -1.269176   -2.128870
C     -3.489883    1.370476    2.165776
C     -5.321896   -0.469466   -0.452697
C     -4.505449    0.789280    1.441382
C     -2.807642   -0.689582   -1.408649
C     -2.219258    1.251086    1.669161
C      0.469846    0.331574   -0.486971
C     -4.271341    0.113255    0.266006
C     -2.993546    0.000448   -0.221385
C     -1.918024    0.571095    0.471428
C      1.408091   -0.419056    0.419597
N      2.702895   -0.852993    0.083132
O      0.979444   -0.686908    1.600949
O     -0.705313    0.495112    0.060360
H      5.164546    0.422755   -1.585267
H      4.054090    1.269227   -0.392159
H      3.725304    1.265725   -2.149496
H      5.035328   -0.067261    1.343101
H      4.858337   -1.238929    2.661394
H      3.626827    0.040253    2.479348
H      0.273292    2.486785   -0.756025
H      1.433386    1.689853   -1.884111
H      1.835034    1.990232   -0.115123
H      3.911307   -1.472222   -1.492769
H      2.411469   -0.499564   -1.924397
H      2.808646   -2.139323    1.765885
H      4.150009   -2.314511    0.580044
H     -5.941896   -1.598868   -2.178615
H     -3.639283   -1.805957   -3.063208
H     -3.724131    1.893391    3.087449
H     -6.313646   -0.356777   -0.032761
H     -5.513714    0.866018    1.805630
H     -1.815481   -0.788702   -1.806200
H     -1.420979    1.714782    2.249920
H      0.442167   -0.259327   -1.459522
