29

C     -1.209960    0.925261   -1.479037
C     -1.185167   -1.271297    1.563680
C     -2.062311   -1.545417   -0.664699
C      3.400114   -0.286152   -0.156229
C      2.754287   -0.037893    1.039197
C      2.666462   -0.293188   -1.337400
C      1.390083    0.198798    1.036870
C      1.307491   -0.055767   -1.325286
C      0.642538    0.196648   -0.122570
C     -1.069957    1.634556    0.810123
C     -0.822104    0.454083   -0.094262
N     -1.486262   -0.711167    0.318073
O     -1.799921    1.570637    1.819931
O     -0.477391    2.861912    0.539447
H     -2.121238    1.549822   -1.388141
H     -0.408944    1.596525   -1.865160
H     -1.313020    0.108733   -2.203651
H     -1.876193   -2.155053    1.718467
H     -1.366080   -0.631334    2.457366
H     -0.159013   -1.742041    1.617097
H     -1.389585   -1.856325   -1.486402
H     -2.400006   -2.485487   -0.169570
H     -2.994924   -1.048953   -1.043664
H      4.462838   -0.472785   -0.174253
H      3.285430   -0.021999    1.988959
H      3.200892   -0.489939   -2.250041
H      0.880956    0.392682    1.962169
H      0.720082   -0.059028   -2.250093
H     -0.569095    3.674168    1.139077
