52

C     -4.949608   -0.344856   -0.671383
C     -0.735700    4.020593    0.136869
C     -3.488842   -0.460242   -1.044236
C      5.541454   -0.310509   -1.122470
C      5.701913    0.906957   -0.470459
C      4.318239   -0.956650   -1.181165
C      4.602295    1.483938    0.135374
C      1.302228   -1.933973   -0.972618
C     -0.057807   -1.842520   -1.565423
C     -2.782017   -0.595190    1.354694
C     -0.428358   -0.496303    1.954581
C     -1.261545   -2.336325    0.474768
C     -1.573089   -1.445660    1.685431
C     -2.593251    0.116931    0.057342
C      3.250514   -0.341249   -0.561522
C      1.844747   -0.701656   -0.411180
C      3.399641    0.862508    0.085537
C      1.204405    0.223228    0.276863
C     -1.162531   -0.161667   -0.396326
C     -0.545589    1.710172    0.960132
C     -0.191389    0.275678    0.662603
N      2.140806    1.234046    0.614301
N     -1.129929   -1.560278   -0.698770
O     -0.942015    2.086294    2.077565
O     -0.425180    2.655633   -0.055436
H     -5.338789   -1.312837   -0.254144
H     -5.169824    0.510261   -0.020418
H     -5.511347   -0.193715   -1.617166
H     -1.687949    4.142130    0.692057
H     -0.812352    4.513167   -0.852013
H      0.042321    4.552752    0.727426
H     -3.287891   -1.537656   -1.211153
H     -3.303516    0.045071   -2.005547
H      6.399873   -0.760716   -1.595313
H      6.686955    1.357374   -0.462943
H      4.177920   -1.904949   -1.685155
H      4.781508    2.442875    0.635574
H      1.979313   -2.280720   -1.782667
H      1.334574   -2.774115   -0.217049
H     -0.042215   -1.056724   -2.365996
H     -0.262127   -2.794040   -2.101411
H     -2.943535    0.136908    2.172987
H     -3.657449   -1.272284    1.370780
H      0.471777   -1.105288    2.200163
H     -0.719164    0.145875    2.788345
H     -0.456472   -3.024165    0.715741
H     -2.187595   -2.974003    0.362152
H     -1.779419   -2.063857    2.574610
H     -2.802862    1.186361    0.131087
H     -1.004296    0.411604   -1.311660
H      2.208504    1.383473    1.646279
H      1.844666    2.138318    0.140361
