43

C     -5.451706   -0.400799   -1.445977
C      6.656976    0.411740   -1.251323
C     -4.393205   -0.346666    1.258204
C     -3.241279    0.471362   -2.210497
C     -1.968499    0.895761   -1.992145
C      4.573994    0.378614    0.126872
C      1.327236   -1.276761    0.459215
C     -4.063734    0.058574   -1.180499
C      5.490365   -0.242607   -0.582795
C     -3.547422    0.089907    0.096907
C     -1.469581    0.917080   -0.680593
C      0.222836   -0.790882    0.992723
C      3.604381   -0.593136    0.612953
C     -2.252861    0.515445    0.369242
C     -0.065343    0.630995    1.179474
C     -0.150014    1.329851   -0.147119
C     -1.514409    0.614318    1.662944
C      5.177398   -1.661680   -0.605615
C     -0.936779   -1.537787    1.506955
O     -0.221095    2.729712    0.027173
O      5.854978   -2.579720   -1.204920
O     -1.168377   -2.763160    1.240816
O      2.300364   -0.383332    0.037650
O      4.028511   -1.834311    0.129433
O     -1.666427   -0.658515    2.293013
H     -6.131275    0.382683   -1.035426
H     -5.661866   -1.396293   -0.978900
H     -5.613256   -0.434877   -2.524785
H      7.518763    0.370939   -0.551592
H      6.881089   -0.162260   -2.174896
H      6.376131    1.454970   -1.466764
H     -4.322308    0.502344    1.996042
H     -5.445507   -0.414875    0.958323
H     -3.990182   -1.226317    1.765108
H     -3.650851    0.447079   -3.229853
H     -1.315252    1.223312   -2.807581
H      4.550633    1.459813    0.318142
H      1.476607   -2.341320    0.350369
H      3.520550   -0.620191    1.724344
H      0.595269    1.141225    1.907196
H      0.681517    1.062501   -0.828523
H     -1.789022    1.459326    2.281064
H     -0.807348    3.117935   -0.695375
