56

C     -6.237202    0.625455    1.547533
C     -5.701713   -1.486233    2.881272
C      5.174427   -2.535262    1.196961
C      6.274788   -0.440220    1.996221
C     -1.516344   -1.435818   -2.229992
C     -2.809277   -1.453623   -1.809275
C     -0.718255   -0.314823   -1.898439
C     -4.952165   -1.261904    0.570938
C     -4.791246   -0.511601   -0.662868
C      2.880381   -0.034926    1.304594
C      3.848237   -0.681943    1.944197
C      0.066776    2.732910   -1.854765
C      4.331472    0.459175   -2.069095
C     -5.645069   -0.683699    1.624862
C     -3.375720   -0.393954   -1.052319
C     -1.237594    0.730756   -1.166471
C      2.986208    0.384304   -0.094031
C      1.016641    2.124249   -2.734312
C      3.305736    1.133271   -2.721407
C     -0.418711    1.869337   -0.742768
C      4.170301    0.073321   -0.720576
C      2.140811    1.426862   -2.081290
C     -2.584226    0.650348   -0.757811
C      1.963164    1.055816   -0.757706
C      5.096253   -1.014438    1.232362
O      0.932768    2.161632   -4.002814
O      3.427243    1.525982   -4.049822
O     -2.984690    1.761478   -0.031570
O      0.777837    1.347805   -0.126461
O      5.195347   -0.591821   -0.080675
H     -5.907565    1.376065    0.847968
H     -6.277056    1.097775    2.571049
H     -7.372498    0.527805    1.298854
H     -5.320623   -2.496477    2.679924
H     -4.993885   -0.991668    3.606488
H     -6.733238   -1.509689    3.253863
H      4.178384   -2.921495    1.468229
H      5.345444   -2.875326    0.145671
H      5.889736   -2.965424    1.897096
H      6.355459   -0.778672    3.024385
H      7.215297   -0.563202    1.385686
H      6.112329    0.676769    2.021506
H     -1.071823   -2.254640   -2.797598
H     -3.430834   -2.312111   -2.043563
H      0.289407   -0.399400   -2.261757
H     -4.543327   -2.272368    0.729466
H     -5.354215   -1.022436   -1.510071
H     -5.237313    0.508785   -0.601195
H      1.967435    0.199711    1.877438
H      3.716556   -0.967151    3.009200
H     -0.782066    3.257649   -2.380562
H      0.602878    3.605629   -1.349381
H      5.250868    0.218395   -2.553855
H     -0.933522    2.444523    0.080000
H      4.293020    1.310024   -4.572552
H     -3.875024    1.884494    0.319990
