43

C      6.030421    0.020092    1.172498
C     -6.901200   -0.514901    1.743869
C      4.249083   -1.708860   -0.274170
C      4.198777    1.724636    1.150150
C      2.918874    2.128739    0.803394
C     -4.482375   -0.740387    1.036872
C     -2.041918   -0.162283   -1.658952
C      4.655907    0.465527    0.804955
C     -5.772026   -0.728905    0.770837
C      3.779910   -0.340387    0.112181
C      2.063039    1.316196    0.115958
C     -0.739114   -0.127836   -1.612615
C     -3.745320   -0.981810   -0.199823
C      2.508669    0.060971   -0.232223
C      0.169010    0.083481   -0.460456
C      0.662696    1.509320   -0.368727
C      1.433914   -0.621970   -0.952977
C     -5.958844   -0.961133   -0.650803
C      0.134082   -0.303510   -2.769865
O     -0.076543    2.263496    0.521692
O     -7.086404   -1.014781   -1.259981
O     -0.175464   -0.478515   -3.976395
O     -2.781143    0.019825   -0.479615
O     -4.704424   -1.108098   -1.195076
O      1.444432   -0.245351   -2.313929
H      6.423754   -0.529303    0.271401
H      6.707857    0.863642    1.329025
H      6.000635   -0.714762    1.986757
H     -7.159566   -1.528690    2.123734
H     -7.799240   -0.144592    1.201169
H     -6.599961    0.165891    2.542805
H      5.060341   -2.042914    0.378695
H      3.360788   -2.403063   -0.208456
H      4.548406   -1.694909   -1.345566
H      4.866435    2.384406    1.697328
H      2.589993    3.130820    1.092228
H     -4.126330   -0.583869    2.054576
H     -2.551577   -0.329367   -2.595476
H     -3.246519   -1.976564   -0.089305
H     -0.192071   -0.325245    0.477990
H      0.663605    1.931996   -1.391609
H      1.388145   -1.705205   -0.801872
H      0.281264    2.221145    1.449775
