56

C     -4.403225   -2.100378   -1.728931
C     -6.241371   -0.364710   -2.016601
C      4.468835   -2.018190   -3.252260
C      5.463556   -2.571093   -1.046234
C     -2.702996    0.687020    3.721414
C     -3.484496   -0.193906    3.001269
C     -1.653018    1.332336    3.099289
C     -5.127434   -0.712216    0.122319
C     -4.129132   -1.396440    0.982431
C      2.299652   -1.153492   -0.668288
C      3.052697   -2.052097   -1.280440
C      0.436380    2.781950    1.971546
C      4.457407    1.863510   -0.622304
C     -5.250874   -1.042624   -1.141313
C     -3.217056   -0.433450    1.649143
C     -1.376105    1.108029    1.770112
C      2.759692    0.210855   -0.425973
C      1.512318    3.391203    1.146367
C      3.647048    2.775521    0.023573
C     -0.266361    1.768498    1.061706
C      4.010248    0.556825   -0.853182
C      2.383467    2.435313    0.458904
C     -2.168692    0.216526    1.045187
C      1.958089    1.144947    0.223475
C      4.418219   -1.716763   -1.756850
O      1.700731    4.622055    1.016539
O      4.055693    4.092011    0.274250
O     -1.909761   -0.023726   -0.287416
O      0.694133    0.808394    0.660221
O      4.777807   -0.378798   -1.487179
H     -4.461214   -3.024862   -1.100467
H     -3.373791   -1.705833   -1.818118
H     -4.770817   -2.365949   -2.760406
H     -6.232608    0.751088   -1.850097
H     -7.273012   -0.704460   -1.814364
H     -5.991429   -0.506999   -3.104682
H      5.484879   -2.402414   -3.512884
H      4.189475   -1.112842   -3.819653
H      3.750165   -2.818767   -3.535091
H      6.395886   -2.629310   -1.654581
H      5.753229   -2.114401   -0.069876
H      5.124777   -3.592088   -0.854902
H     -2.936165    0.853006    4.770967
H     -4.297024   -0.679375    3.522177
H     -1.038610    2.030160    3.682918
H     -5.778825    0.072360    0.506838
H     -3.459904   -2.021718    0.329544
H     -4.578564   -2.105782    1.709421
H      1.308274   -1.424678   -0.332650
H      2.725044   -3.068753   -1.468044
H      0.932829    2.183570    2.761561
H     -0.269085    3.526797    2.363800
H      5.430641    2.142364   -0.952087
H     -0.595578    2.338828    0.166642
H      4.970175    4.350238   -0.038178
H     -1.174199    0.392715   -0.828725
