54

C      1.764270   -3.873356   -1.072417
C      5.019358    3.715938    0.515593
C      4.447729    3.083970    1.601326
C      4.836725    3.251336   -0.762280
C     -4.819183    2.057726   -0.520017
C     -4.139993   -3.838600    0.418250
C     -3.624673    2.715867   -0.354908
C     -2.822528   -4.105516    0.733849
C      3.685329    1.966522    1.351705
C      4.056656    2.114357   -0.978876
C     -4.935600    0.696916   -0.356180
C     -4.548334   -2.546608    0.162663
C     -2.515742    1.975874   -0.014021
C     -1.951914   -3.047298    0.781438
C     -1.051031   -0.133384    1.887626
C      3.470631    1.456287    0.072223
C     -3.813980   -0.051858   -0.011433
C     -3.654282   -1.480667    0.214134
C     -2.605564    0.588202    0.159518
C     -2.348839   -1.729794    0.525062
C     -1.612823   -0.448961    0.519976
C      2.629528    0.233096   -0.067819
C      2.316644   -0.129417   -1.477198
C      1.744331   -1.500495   -1.563262
C      0.750477    1.326941    1.047697
N      1.440377    0.321858    0.719872
O      1.496470    0.765521   -2.130001
O      0.677951   -1.691249   -2.200052
O      1.115794    2.585512    0.629510
O      2.350722   -2.588299   -0.960057
O     -0.379415    1.098590    1.842768
H      1.924039   -4.418560   -0.115804
H      0.675250   -3.720953   -1.234771
H      2.228615   -4.396455   -1.936120
H      5.618718    4.590688    0.689169
H      4.585614    3.443331    2.618773
H      5.288707    3.752219   -1.613370
H     -5.694196    2.634461   -0.787892
H     -4.828718   -4.671683    0.380161
H     -3.563135    3.807493   -0.493292
H     -2.480520   -5.110487    0.937754
H      3.226056    1.452438    2.184939
H      3.911830    1.750456   -1.987091
H     -5.866136    0.161666   -0.481717
H     -5.580075   -2.311521   -0.087880
H     -1.577830    2.487424    0.113604
H     -0.904523   -3.242311    1.030103
H     -0.390657   -0.949630    2.257874
H     -1.932939    0.005791    2.561448
H     -0.778701   -0.474064   -0.242361
H      3.290882   -0.599074    0.344924
H      3.292157   -0.154923   -2.049393
H      1.221036    0.370014   -2.990376
H      1.355436    2.804671   -0.327088
