42

C     -4.166765    0.129439    1.122828
C     -2.964160   -1.973464    1.284752
C     -1.193070    2.277189    1.118437
C      6.695361   -0.593858   -0.235678
C     -1.806400   -0.260745   -1.593013
C      1.973661   -1.155959    1.085801
C      0.695112   -0.696048    1.056953
C     -3.018221   -0.814190   -0.833682
C     -1.659208    1.140386   -0.983321
C      2.627250    0.686132   -0.211695
C      2.961684   -0.469547    0.449921
C      0.307860    0.474205    0.396899
C      1.329361    1.149268   -0.238585
C      4.361057   -0.917723    0.446646
C     -2.898151   -0.581502    0.625671
C     -1.111666    0.920911    0.402895
O      1.051161    2.300676   -0.908655
O      4.677613   -1.964400    1.043081
O      5.328554   -0.191409   -0.210199
O     -1.838288    0.041446    1.110899
H     -5.045196   -0.275993    0.585966
H     -4.072496    1.218847    1.079638
H     -4.284149   -0.161362    2.188825
H     -2.063527   -2.520597    0.901652
H     -3.846150   -2.469784    0.843481
H     -2.982198   -1.897832    2.376029
H     -0.290160    2.437290    1.757014
H     -2.058742    2.286409    1.831217
H     -1.372532    3.099682    0.411441
H      7.254558   -0.150100    0.612074
H      6.729601   -1.708747   -0.226946
H      7.126614   -0.197122   -1.172698
H     -1.977444   -0.230026   -2.667829
H     -0.937279   -0.886763   -1.285961
H      2.199905   -2.071656    1.617967
H     -0.074534   -1.251474    1.565375
H     -3.182452   -1.884029   -1.121459
H     -3.891253   -0.265780   -1.245200
H     -1.111544    1.817770   -1.614658
H     -2.682950    1.581293   -0.840727
H      3.423310    1.224723   -0.714896
H      1.785871    2.804443   -1.377236
