58

C      6.122035   -0.415884   -2.418315
C      6.746233   -1.993411   -0.517775
C     -5.179662   -3.553390    0.144605
C     -5.070041   -1.074092    0.564889
C      2.396300    2.799708   -0.049300
C      3.061869    1.887330   -0.836896
C      1.411185    2.374460    0.860683
C      4.443675   -1.253982   -0.814751
C     -3.255875   -2.320686   -0.628687
C      3.433558   -0.476408   -1.543682
C     -2.260837   -1.313406   -0.958728
C     -3.676785    2.197792   -0.871662
C     -0.436367    1.627510    2.785794
C      5.700672   -1.215657   -1.236950
C     -4.402621   -2.253726   -0.014367
C      2.748529    0.550061   -0.720273
C     -2.546699    0.075848   -0.570051
C      1.092354    1.051684    0.984565
C     -3.446010    0.881309   -1.250894
C     -3.004842    2.725997    0.201342
C     -1.375547    2.485684    2.052791
C      0.073078    0.527298    1.899500
C     -2.098714    1.954209    0.907516
C      1.780274    0.159325    0.178410
C     -1.895250    0.671858    0.511948
O     -4.121235    0.353927   -2.326469
O     -3.194860    4.037907    0.627388
O     -1.608229    3.699620    2.360072
O      1.500524   -1.189015    0.262070
O     -0.990498   -0.119871    1.205210
H      5.517231   -0.670823   -3.324095
H      5.984306    0.674167   -2.256288
H      7.172995   -0.620839   -2.700738
H      7.693535   -1.403120   -0.584674
H      6.902921   -2.979882   -1.000949
H      6.434651   -2.087883    0.547368
H     -6.232843   -3.386061    0.359213
H     -4.746364   -4.156960    0.964880
H     -5.015236   -4.119939   -0.796308
H     -5.675880   -0.587066   -0.251877
H     -5.885764   -1.404522    1.292445
H     -4.442348   -0.385401    1.121043
H      2.626142    3.857646   -0.123483
H      3.822786    2.237670   -1.537050
H      0.897964    3.101037    1.472231
H      4.162790   -1.843197    0.046485
H     -2.948190   -3.356399   -0.987529
H      3.834012    0.046016   -2.429102
H      2.686418   -1.216996   -1.953342
H     -1.260236   -1.624014   -0.533096
H     -2.140547   -1.306158   -2.087411
H     -4.393563    2.815512   -1.426869
H     -0.959343    1.107655    3.649975
H      0.462866    2.165982    3.177912
H      0.542044   -0.300641    2.510290
H     -3.966260   -0.596302   -2.610508
H     -3.829076    4.684627    0.186209
H      0.808775   -1.526109    0.904537
