37

C     -1.847044    2.054524    0.387737
C     -3.703409    0.578186   -0.126886
C      1.284267   -2.626508    0.224167
C     -1.210665   -2.593587    0.134954
C     -2.092857   -1.670083   -0.135551
C      2.194573    0.111531   -0.805016
C      1.372032    1.225608    1.147346
C      0.791527   -0.100069   -1.138916
C      0.391504    0.087227    1.305021
C     -2.280388    0.630299    0.457460
C      0.121430   -2.025583    0.146829
C      2.511901    0.755144    0.304242
C     -1.472813   -0.338527   -0.345783
C      3.890662    0.977584    0.657968
C     -0.061624   -0.546889    0.052354
O      4.216596    1.586447    1.706629
O      4.891240    0.520116   -0.158980
H     -1.139573    2.241160   -0.450881
H     -1.345392    2.442549    1.295875
H     -2.724662    2.751132    0.244989
H     -4.282998   -0.254673    0.272265
H     -4.209578    1.563727    0.032885
H     -3.567803    0.488213   -1.223997
H      1.374007   -3.721718    0.294015
H      2.212779   -2.095441    0.225937
H     -1.388350   -3.645379    0.330581
H     -3.167534   -1.896646   -0.191961
H      2.967020   -0.254003   -1.457598
H      0.984319    2.114941    0.656749
H      1.813102    1.433353    2.150505
H      0.398512    0.822302   -1.606777
H      0.689520   -0.905042   -1.903664
H      0.969673   -0.688230    1.897164
H     -0.432712    0.352478    2.002327
H     -2.410885    0.263284    1.506243
H     -1.590019   -0.048917   -1.427150
H      5.853641    0.411490    0.090648
