58

C     -1.877982   -2.597268   -1.070822
C      3.595810   -3.226194   -1.343093
C      5.102338   -3.081267    0.686028
C     -3.513165    0.383495   -2.084909
C     -4.346806   -1.511243   -0.789981
C     -1.901793   -1.289360   -1.161245
C      3.092179   -1.685157    0.509309
C     -4.069266    0.116712    1.284298
C      1.872950   -1.119082   -0.051467
C     -3.885613    0.649406    2.574392
C     -1.853389    0.775910    0.761207
C      2.591094    2.046766   -1.856978
C      0.169910    3.071850    2.226555
C      3.848109   -2.597231   -0.036998
C     -3.053079    0.171166    0.366095
C      1.899574    0.324390   -0.330147
C     -1.644024    1.301884    2.011615
C     -2.700579    1.222649    2.922693
C      2.564309    0.715643   -1.467845
C      1.927208    2.948708   -1.060796
C      0.497233    3.505613    0.884580
C     -0.304138    1.715264    2.427425
C      1.263536    2.574387    0.070485
C      1.223953    1.251880    0.486089
C     -3.172250   -0.530402   -0.967234
O     -2.500461    1.744350    4.179414
O      3.236917   -0.228007   -2.263597
O      1.905167    4.320089   -1.388439
O      0.158498    4.619985    0.408551
O      0.572550    0.854815    1.633934
H     -2.762883   -3.178111   -0.855692
H     -0.961637   -3.178088   -1.196595
H      3.997846   -4.299869   -1.331372
H      4.221476   -2.688817   -2.107503
H      2.547791   -3.283839   -1.570481
H      5.615257   -3.799039    0.041644
H      5.784212   -2.223043    0.889211
H      4.780846   -3.569234    1.641264
H     -4.525202    0.794653   -1.935688
H     -3.538954   -0.268709   -3.015716
H     -2.771899    1.177664   -2.230106
H     -4.332339   -1.974908    0.191575
H     -4.354031   -2.236238   -1.633441
H     -5.280740   -0.902582   -0.947353
H     -1.002616   -0.749902   -1.369944
H      3.450309   -1.329540    1.514163
H     -5.001632   -0.328306    1.014948
H      1.670225   -1.616172   -1.041395
H      0.952443   -1.373148    0.568360
H     -4.687685    0.611845    3.303969
H     -1.103274    0.800772   -0.015632
H      3.119930    2.334941   -2.735440
H      1.176153    3.127586    2.795025
H     -0.407461    3.858643    2.805385
H     -0.166817    1.348665    3.475058
H     -3.237594    1.734894    4.905777
H      3.734823    0.089846   -3.106146
H      2.384664    4.670285   -2.203092
