54

C     -6.622137    1.011507    0.448112
C     -3.988224   -2.623512    1.665745
C     -4.588318   -2.390724    0.444044
C     -2.934165   -1.832736    2.051937
C      4.481514   -3.117008    1.139542
C      5.755560    2.789367    0.985374
C      3.481039   -3.363678    0.229886
C      4.954249    3.430868    0.059820
C     -4.101449   -1.372670   -0.335116
C     -2.444747   -0.812070    1.272673
C      4.968347   -1.818138    1.305634
C      5.683570    1.435141    1.233747
C      2.988692   -2.299090   -0.495988
C      4.044367    2.631770   -0.632450
C      1.607656    0.562956   -0.829933
C     -3.044439   -0.573917    0.043696
C      4.452421   -0.755319    0.557353
C      4.756671    0.679019    0.514903
C      3.451384   -1.022124   -0.348112
C      3.944855    1.283652   -0.412129
C      3.092338    0.251738   -0.994046
C     -2.498314    0.530526   -0.774875
C     -2.955175    1.883144   -0.232938
C     -4.438425    1.889415   -0.265946
C     -0.465898   -0.471946   -1.431279
N     -1.051881    0.468435   -0.801727
O     -2.457320    2.893864   -1.067401
O     -5.025465    2.715987   -0.986611
O     -1.202764   -1.429918   -2.086671
O     -5.203681    1.014750    0.471281
O      0.910440   -0.505203   -1.439198
H     -6.949526    0.348973    1.268273
H     -6.949986    2.039965    0.713426
H     -7.031055    0.718315   -0.532555
H     -4.358919   -3.420492    2.291007
H     -5.420618   -2.983354    0.092493
H     -2.462959   -2.020933    3.019187
H      4.912544   -3.918637    1.744400
H      6.474922    3.390744    1.539846
H      3.101469   -4.356516    0.095719
H      5.004055    4.482675   -0.138953
H     -4.574936   -1.194959   -1.290344
H     -1.604568   -0.213152    1.626579
H      5.757693   -1.635402    2.026158
H      6.298327    0.924589    1.948172
H      2.197125   -2.471371   -1.221036
H      3.416038    3.116383   -1.353824
H      1.429311    0.589210    0.281248
H      1.360799    1.546139   -1.229010
H      3.344701    0.187101   -2.091433
H     -2.954007    0.459974   -1.787908
H     -2.561356    2.072830    0.772182
H     -1.847946    2.528895   -1.759031
H     -2.131809   -1.275063   -2.456243
