64

C      6.960821    3.207596   -0.277685
C     -7.158444    1.651907    0.842040
C     -6.433256    1.915964   -0.454974
C     -6.968115    0.210106    1.193319
C      4.525763   -1.498723   -2.253702
C      4.609857    0.838725    2.263057
C     -4.942722    1.749250   -0.314819
C     -5.663089   -0.378877    0.800077
C      3.986454   -0.309744    1.752540
C      5.136728   -0.177322   -1.821994
C      3.160808   -1.635771   -1.571027
C      5.384391    1.625139    1.437374
C      1.243148   -1.945430    0.908067
C      0.256222   -1.928399   -0.220910
C     -0.943253    0.044891    0.498860
C     -1.969637   -1.605318   -0.860285
C     -2.195757    0.793085    0.063253
C     -3.396412   -1.271155   -0.391380
C     -4.559574    0.626297    0.602312
C      4.134450   -0.660549    0.450373
C      4.906885    0.121071   -0.380881
C      3.489206   -1.869999   -0.102794
C      5.533867    1.268641    0.117640
N      2.504981   -2.472623    0.673155
N     -1.022954   -1.353570    0.209026
N     -3.373182    0.027370    0.129476
O      6.311980    2.051403   -0.728940
H      6.281857    3.881563    0.295985
H      7.372382    3.792122   -1.128104
H      7.825385    2.952412    0.400725
H     -6.813275    2.332703    1.653452
H     -8.236897    1.822615    0.637346
H     -6.714852    2.898603   -0.835335
H     -6.789244    1.152176   -1.178511
H     -7.166268    0.044347    2.293734
H     -7.798908   -0.369444    0.697223
H      5.181097   -2.351962   -2.066290
H      4.340924   -1.435934   -3.346049
H      4.494981    1.124956    3.307668
H     -4.456127    1.619166   -1.299089
H     -4.537340    2.691433    0.105924
H     -5.323474   -1.059112    1.624952
H     -5.801403   -1.036076   -0.081871
H      3.404181   -0.866246    2.471503
H      6.248316   -0.300346   -1.969785
H      4.797372    0.651662   -2.463576
H      2.656291   -0.669362   -1.756551
H      2.643044   -2.513008   -1.954201
H      5.883755    2.515001    1.776266
H      0.749275   -2.556079    1.728907
H      1.337065   -0.881759    1.302509
H      0.076549   -2.976059   -0.580680
H      0.607166   -1.365474   -1.093747
H     -0.096545    0.516186   -0.029147
H     -0.825389    0.249615    1.587621
H     -1.749894   -0.923331   -1.706607
H     -1.924963   -2.651242   -1.193816
H     -2.220581    1.734618    0.648985
H     -2.037797    1.095573   -1.016799
H     -3.741643   -2.056401    0.317317
H     -4.008247   -1.280028   -1.342313
H     -4.337816    1.057423    1.620993
H      4.329652   -2.681711   -0.187513
H      2.832204   -3.182566    1.336367
