18

C     -0.970704   -0.974308    0.220564
C     -1.152985    0.141208   -0.791267
C      1.491629   -0.936927   -0.246199
C      0.401006   -0.974340    0.822090
C     -0.659891    1.415270   -0.114271
C      0.775624    1.103292    0.327039
Br    -0.731728    2.936241   -1.262855
O      1.387632    0.382032   -0.669464
O      0.652012    0.270874    1.440275
H     -1.199656   -1.948663   -0.213339
H     -1.694158   -0.776515    1.036041
H     -0.511085   -0.032191   -1.666118
H     -2.210183    0.275094   -1.028305
H      1.353725   -1.677036   -1.026185
H      2.453635   -1.014944    0.307969
H      0.499993   -1.813463    1.505169
H     -1.235931    1.606887    0.831094
H      1.351064    2.017488    0.527761
