64

C     -8.233875    1.315527   -0.893713
C      7.460161    1.022424   -0.168205
C      7.043210   -0.142519    0.660844
C      6.422667    1.277467   -1.210453
C     -4.262589   -2.621718   -0.478541
C     -4.743346    2.186361    1.173572
C      5.600442   -0.032114    1.128999
C      5.404179    0.135856   -1.298808
C     -3.712308    1.273817    1.209828
C     -5.185878   -1.514731   -0.851580
C     -3.417108   -2.320344    0.726073
C     -5.893545    1.883373    0.484288
C     -1.294876    0.309527   -0.834348
C     -0.219345    0.635907    0.143628
C      1.589430   -0.239593   -1.068713
C      1.783183    0.188714    1.206488
C      2.820998   -1.114970   -1.061896
C      2.917503   -0.786293    1.302317
C      4.626782    0.109271   -0.021297
C     -3.829405    0.066541    0.562038
C     -4.979578   -0.246479   -0.132134
C     -2.737082   -0.963629    0.574712
C     -6.008454    0.672866   -0.164217
N     -1.948477   -0.944069   -0.621946
N      0.862752   -0.315994    0.181673
N      3.655997   -0.913812    0.081314
O     -7.180915    0.372202   -0.863206
H     -7.881137    2.222568   -1.411256
H     -8.533042    1.619125    0.149849
H     -9.106834    0.831042   -1.402887
H      8.460076    0.790372   -0.592870
H      7.610639    1.922044    0.478917
H      7.226018   -1.115534    0.188656
H      7.649952   -0.141000    1.606893
H      5.898141    2.215673   -1.021700
H      6.960407    1.370458   -2.191571
H     -4.853263   -3.542363   -0.242916
H     -3.596732   -2.915450   -1.325480
H     -4.636473    3.128998    1.686918
H      5.520893    0.847860    1.780760
H      5.443275   -0.997917    1.696410
H      4.766922    0.424707   -2.185771
H      5.883060   -0.816572   -1.531925
H     -2.782389    1.495374    1.756445
H     -6.247369   -1.822085   -0.647863
H     -5.115773   -1.338192   -1.945786
H     -3.984776   -2.345114    1.657648
H     -2.607676   -3.095770    0.769079
H     -6.727291    2.591412    0.439475
H     -2.073641    1.108782   -0.737682
H     -0.893920    0.429588   -1.855636
H      0.229303    1.612172   -0.184763
H     -0.565635    0.805627    1.177988
H      0.909649   -0.618936   -1.859817
H      1.819869    0.810494   -1.308531
H      1.237657    0.241576    2.152837
H      2.184087    1.162094    0.852011
H      2.453399   -2.173946   -1.018736
H      3.326249   -0.997565   -2.014303
H      2.517623   -1.788026    1.635992
H      3.576020   -0.399157    2.119922
H      4.082508    1.097222    0.035286
H     -2.127045   -0.803566    1.471465
H     -2.563274   -1.109585   -1.464667
