35

C     -4.896336    1.870258    0.646161
C      0.578987   -2.587935   -1.769579
C      2.219719    1.380072   -0.165087
C      3.239807   -0.535732    0.779644
C      1.126066    0.597875   -0.569074
C      2.164876   -1.286943    0.379093
C     -3.251261    0.338108   -0.524586
C     -1.275784   -1.062792   -1.145799
C     -2.523166    1.113682    1.391460
C     -3.594881    1.145527    0.524025
C      3.275843    0.831517    0.504451
C      1.079548   -0.746039   -0.303920
C     -1.975131   -0.162206   -0.255130
C      4.442652    1.616264    0.932197
C     -0.004416   -1.638891   -0.706793
O      4.590041    2.969884    0.697824
O      5.388349    1.034874    1.557457
O     -0.296894   -2.485904    0.398206
O     -1.597866    0.329743    0.885784
H     -5.303252    2.053344   -0.375518
H     -4.839539    2.791649    1.225073
H     -5.650828    1.172182    1.128689
H     -0.226638   -3.236202   -2.124972
H      1.009470   -1.966908   -2.553604
H      1.385851   -3.176509   -1.258941
H      2.225522    2.433335   -0.388532
H      4.085846   -0.935160    1.316602
H      0.321358    1.101627   -1.093759
H      2.164490   -2.338593    0.606698
H     -3.889130    0.141555   -1.390236
H     -1.044402   -0.483992   -2.101377
H     -1.983478   -1.868959   -1.514388
H     -2.524043    1.678973    2.329431
H      5.505941    3.296474    0.378660
H      0.072679   -3.384179    0.293299
