46

C     -4.195242    1.274936    0.593869
C     -3.336840   -0.752941    1.589825
C      0.556473   -2.406467   -1.412047
C      5.026654   -1.248543   -0.050332
C      0.653513    3.700424    0.974310
C     -1.410546   -1.302227   -2.283656
C     -2.563528   -0.885008   -1.394708
C      2.935229   -1.067046    1.359626
C      1.514497   -0.688615    1.224132
C     -0.689266    1.761196    0.509265
C     -3.309033    0.300172    0.556078
C     -0.133045   -1.318999   -1.476959
C      3.566842   -0.953349    0.211247
C      0.535156    2.279914    0.561838
C     -2.296782    0.285789   -0.534087
C     -0.935230    0.350817    0.110358
C      0.192355   -0.059033   -0.822714
C      2.657970   -0.490162   -0.830075
C      1.710035    1.494623    0.231144
C      1.477314    0.035934   -0.093053
O      2.821064   -0.521255   -2.069985
O      2.848944    1.999970    0.216357
H     -4.178897    2.045314   -0.157981
H     -4.948084    1.324437    1.367802
H     -4.289895   -0.706393    2.155200
H     -2.523171   -0.649314    2.343843
H     -3.291135   -1.776437    1.156635
H      0.173708   -3.298743   -1.962922
H      1.475292   -2.578806   -0.878449
H      5.581045   -1.192243    0.918649
H      5.145720   -2.284382   -0.440570
H      5.456160   -0.543397   -0.769489
H     -0.119302    4.341164    0.485761
H      0.556506    3.738736    2.075896
H      1.653852    4.106896    0.701045
H     -1.240621   -0.627855   -3.128254
H     -1.640905   -2.322488   -2.643828
H     -3.396975   -0.603347   -2.100661
H     -2.930341   -1.777692   -0.852066
H      3.384385   -1.397758    2.307274
H      0.912861   -1.638281    1.226644
H      1.180177   -0.015337    2.048876
H     -1.541574    2.380812    0.764326
H     -2.399520    1.206179   -1.159986
H     -0.866469   -0.262590    1.007268
H      0.220650    0.741396   -1.635446
