35

C      5.858183    0.149821   -0.410152
C     -0.008648   -1.951431   -0.559102
C     -3.674884   -0.202408   -0.156998
C     -2.888315    1.354337    1.481420
C     -2.386728   -0.730410   -0.278984
C     -1.607981    0.824745    1.355605
C      3.311777    0.413607    0.037044
C      0.757570    0.417215   -0.316649
C      3.840728   -0.303787   -1.967126
C      4.412935    0.090896   -0.749873
C     -3.906850    0.826310    0.714254
C     -1.388411   -0.200759    0.480347
C      2.154700    0.214404   -0.697023
C     -5.254492    1.384595    0.787244
C      0.034554   -0.713997    0.318520
O     -6.263220    0.901126   -0.023849
O     -5.487787    2.307698    1.592123
O      0.523510   -1.015483    1.552837
O      2.555844   -0.220668   -1.896764
H      6.167519   -0.630774    0.306631
H      6.417379    0.134214   -1.376125
H      6.114491    1.119068    0.074403
H     -0.750489   -2.634270   -0.083885
H     -0.320396   -1.690198   -1.594266
H      0.950167   -2.511914   -0.516875
H     -4.479643   -0.631045   -0.775290
H     -3.115563    2.169090    2.171930
H     -2.222996   -1.554776   -0.983575
H     -0.822330    1.262221    1.969788
H      3.381068    0.761911    1.059168
H      0.132174    0.728308   -1.212972
H      0.614831    1.300183    0.375020
H      4.486726   -0.615348   -2.778451
H     -7.257785    1.082416    0.143251
H      0.122362   -1.834899    1.958373
