32

C     -2.429847   -1.587906   -0.907858
C      4.166787   -2.246633   -0.610411
C     -3.556151   -0.476364    0.969766
C      0.712392   -1.018914   -0.011556
C      2.677178    0.203114   -0.306539
C     -2.242920   -1.017909    0.475825
C      2.068926   -1.014919   -0.235165
C      0.013017    0.171503    0.132056
C      1.994539    1.433380   -0.164743
C     -3.514938    0.989152    0.733193
C     -1.355151    0.170484    0.357635
C      0.635788    1.413041    0.058846
C     -2.104309    1.314451    0.508323
C     -0.116595    2.559736    0.210130
N     -1.456820    2.487310    0.429400
O      2.686063    2.595622   -0.251177
O     -4.488499    1.774067    0.728926
O      0.443298    3.822237    0.147783
O      2.797657   -2.197748   -0.383435
H     -2.404611   -2.711774   -0.891847
H     -3.371906   -1.265571   -1.380963
H     -1.567359   -1.298378   -1.563006
H      4.496087   -3.309591   -0.427864
H      4.434334   -2.030943   -1.664829
H      4.705760   -1.588859    0.099340
H     -4.423509   -0.916389    0.423943
H     -3.637012   -0.719027    2.059488
H      0.191855   -1.957863    0.051978
H      3.754050    0.261975   -0.482696
H     -1.817135   -1.790602    1.136201
H      2.462523    3.517179   -0.192408
H      0.246510    4.436136    0.951665
