37

C      4.935944   -0.042884    1.260070
C      5.055536    0.977040   -1.040365
C     -0.164779   -1.876005    1.109813
C     -3.869823   -0.191706    0.813924
C     -3.470968    0.416134   -1.446951
C     -2.540001   -0.524043    0.994863
C     -2.131927    0.091908   -1.297846
C      2.914625    0.651520   -0.038167
C      0.431536    0.491916    0.647449
C      4.198282    0.510835    0.118402
C     -4.357242    0.276189   -0.385847
C     -1.684692   -0.374748   -0.076560
C      1.892911    0.275214    0.920609
C     -5.771435    0.614398   -0.539352
C     -0.253558   -0.737068    0.132601
O      2.250525   -0.245364    2.009767
O     -6.320835    1.087609   -1.716864
O     -6.532525    0.470430    0.447845
O      0.276650   -1.052326   -1.113545
H      5.321742   -1.078014    1.031968
H      5.874833    0.598745    1.355239
H      4.450466   -0.002246    2.229510
H      4.457620    1.041244   -1.979567
H      5.415107    1.976330   -0.766875
H      5.859745    0.226751   -1.140073
H     -0.993920   -2.586423    0.923530
H      0.768861   -2.421979    0.992635
H     -0.159892   -1.453390    2.135747
H     -4.536910   -0.309589    1.644310
H     -3.872145    0.780865   -2.370799
H     -2.169663   -0.889661    1.943677
H     -1.451545    0.202199   -2.113101
H      2.498638    1.095432   -0.972087
H     -0.075681    0.923171    1.535322
H      0.377475    1.272772   -0.147713
H     -7.033204    1.809321   -1.740780
H      0.410250   -2.004578   -1.246050
