59

C     -5.796522   -2.314706    2.118407
C      3.358903   -4.528486   -1.231815
C      3.646393   -3.080191    0.786747
C     -3.702203   -2.357073    0.294704
C     -1.781482    0.440277   -2.737150
C     -2.270257    2.657242   -1.886309
C     -4.937415   -1.102572    1.931277
C      2.372585    4.308438   -0.672032
C      3.404150    4.158247    1.509805
C      1.517012    3.796080   -1.633407
C      3.541239    3.467089    2.693486
C      2.152019   -2.421206   -1.097992
C      2.706721   -3.551821   -0.275939
C     -3.934903   -1.109092    1.064587
C      2.552985    3.662673    0.534469
C      0.835714    2.624938   -1.382558
C      2.812306    2.296390    2.851939
C      1.481751   -1.396658   -0.229380
C      1.027076    1.989119   -0.168572
C      1.872228    2.488753    0.789769
C      0.256695    0.718369    0.036125
C     -1.153609    0.997415   -0.370466
C     -3.070330    0.022474    0.835912
C     -1.286812    1.500233   -1.782442
O      2.936782    1.658596    3.940322
O      1.462576   -1.590826    1.013668
O     -3.259876    1.073257    1.478457
O      2.003773    1.829980    1.919682
O      0.894614   -0.269647   -0.719801
O     -2.061316   -0.025744   -0.055248
O     -0.038862    2.026952   -2.265854
H     -6.472632   -2.411278    1.238134
H     -6.405675   -2.171323    3.030705
H     -5.191255   -3.221408    2.281439
H      4.445598   -4.682872   -0.973878
H      2.900177   -5.548409   -1.155604
H      3.259421   -4.220693   -2.288270
H      4.526724   -3.771723    0.813024
H      3.185750   -3.077074    1.774655
H      4.059923   -2.075167    0.512743
H     -3.618938   -3.240543    0.961850
H     -4.516208   -2.449288   -0.439260
H     -2.745101   -2.302041   -0.261422
H     -2.484457   -0.222722   -2.199824
H     -2.372380    0.888360   -3.579783
H     -0.954344   -0.114480   -3.228157
H     -3.299645    2.308488   -2.107253
H     -2.275496    3.278494   -0.967207
H     -1.977471    3.350499   -2.714431
H     -5.093618   -0.185957    2.484058
H      2.913152    5.221768   -0.849772
H      3.961000    5.071434    1.363635
H      1.362957    4.287493   -2.586984
H      4.176869    3.777352    3.501473
H      2.996483   -1.929830   -1.635278
H      1.439620   -2.773502   -1.842375
H      1.821981   -4.071868    0.181951
H      0.283455    0.474159    1.109622
H     -1.467820    1.843632    0.285820
