59

C     -1.826210    5.098368    0.847519
C      4.436340    2.118068    2.368534
C      2.730008    2.417070    0.661073
C     -4.049279    3.337926    0.494062
C      0.455088    0.982980   -2.793185
C     -1.417423   -0.407282   -3.436406
C     -1.650390    3.705398    0.365540
C      0.108918   -4.942616   -1.673399
C     -0.484981   -5.868294    0.497378
C      0.357693   -3.810598   -2.423872
C     -0.807970   -5.685275    1.825420
C      2.915715    0.261694    1.919151
C      3.001119    1.773250    2.004638
C     -2.670937    2.880743    0.197941
C     -0.216679   -4.795904   -0.342796
C      0.291137   -2.536625   -1.885738
C     -0.858687   -4.395677    2.304585
C      1.581559   -0.217262    1.575253
C     -0.038850   -2.419734   -0.543837
C     -0.293027   -3.533853    0.231849
C     -0.099440   -1.035181   -0.017256
C     -0.862494   -0.196528   -1.004591
C     -2.477046    1.521792   -0.272092
C     -0.291269   -0.247019   -2.396720
O     -1.156491   -4.229400    3.530032
O      0.683254   -0.333247    2.459759
O     -3.426833    0.755215   -0.429813
O     -0.604231   -3.385175    1.505623
O      1.174752   -0.582966    0.282867
O     -1.214792    1.064442   -0.551325
O      0.529027   -1.381831   -2.586947
H     -2.667596    5.188185    1.562105
H     -1.947113    5.775588   -0.016867
H     -0.908564    5.329082    1.448698
H      4.536405    2.274687    3.476926
H      4.755676    3.065176    1.880112
H      5.119537    1.271805    2.126553
H      2.081932    1.801012    0.012519
H      3.692912    2.686467    0.136013
H      2.194681    3.369844    0.849695
H     -4.787334    2.540929    0.321260
H     -4.331727    4.189168   -0.160285
H     -4.087486    3.725373    1.542557
H      0.615803    1.688586   -1.931481
H      0.019307    1.515889   -3.667256
H      1.474997    0.682558   -3.107292
H     -1.122280    0.080172   -4.388014
H     -1.607883   -1.479414   -3.629291
H     -2.274671    0.132350   -3.026333
H     -0.663359    3.301290    0.127621
H      0.159731   -5.937711   -2.089712
H     -0.438110   -6.880613    0.094303
H      0.614902   -3.926960   -3.474147
H     -1.019833   -6.505492    2.495331
H      3.289579   -0.118368    2.900492
H      3.670087   -0.060580    1.171138
H      2.360688    2.179001    2.814328
H     -0.711938   -1.060232    0.909578
H     -1.835927   -0.740275   -1.091797
