37

C     -5.196577   -0.974030   -0.112449
C     -4.617231    1.543549    0.144009
C     -0.271011   -0.914315   -1.635048
C      3.511746   -1.453355    0.428467
C      3.799937    0.911823    0.303411
C      2.198710   -1.314696   -0.008268
C      2.490985    1.025447   -0.128858
C     -2.934482   -0.234145    0.205081
C     -0.501738    0.283632    0.580283
C     -4.200766    0.112591    0.066422
C      4.315182   -0.327585    0.584880
C      1.679940   -0.077675   -0.288724
C     -1.867994    0.731085    0.379306
C      5.673876   -0.486365    1.072530
C      0.290847    0.106110   -0.696712
O     -2.124136    1.961531    0.359837
O      6.490812    0.621929    1.283952
O      6.149227   -1.617023    1.314759
O      0.208166    1.360687   -1.355039
H     -6.027817   -0.770507    0.573149
H     -5.484436   -0.938418   -1.189177
H     -4.719255   -1.937593    0.113259
H     -4.235474    2.062365   -0.733653
H     -4.222308    1.967638    1.121622
H     -5.722242    1.582676    0.269634
H     -1.344730   -0.703380   -1.746109
H     -0.144968   -1.957694   -1.300557
H      0.172274   -0.766387   -2.650175
H      3.894991   -2.423633    0.641240
H      4.420161    1.801897    0.423185
H      1.634117   -2.229605   -0.108643
H      2.137567    2.021252   -0.338083
H     -2.654406   -1.299512    0.191854
H     -0.445776   -0.691132    1.147045
H      0.038092    1.077311    1.162063
H      6.975157    0.699755    2.187271
H      0.633560    1.245773   -2.261764
