52

C      0.099801    4.406890    1.394771
C     -4.639430    1.040220   -0.293099
C     -5.238575   -1.326323   -0.243631
C      4.518155    0.447790   -0.495501
C      3.338589   -1.170894   -1.871681
C     -0.099607    3.438189    0.248023
C      1.659158   -2.541624    0.527599
C     -2.060575    0.386309   -0.008089
C     -1.093171   -2.020945    0.809799
C      1.516811    0.723203   -0.962382
C      4.053840   -1.763363    0.383774
C     -4.377082   -0.276203    0.410485
C      3.075171   -2.882205    0.512569
C     -2.951444   -0.573680    0.414626
C     -0.201482   -1.033611    0.375799
C      1.254695   -1.299834    0.343269
C     -0.704179    0.172656   -0.031304
C      2.168768   -0.171403    0.100697
C     -2.472832   -1.790394    0.829874
C      0.216307    1.261789   -0.465498
C      3.463765   -0.653632   -0.450909
O      3.527273   -4.045243    0.600476
O     -3.388930   -2.736417    1.251241
O      0.397531    2.187927    0.567989
H     -0.367192    5.379904    1.135044
H     -0.441103    4.056862    2.302307
H      1.158696    4.597585    1.621989
H     -5.741737    1.141835   -0.534700
H     -4.150697    1.034233   -1.311870
H     -4.362028    1.910387    0.317187
H     -6.170799   -0.803936   -0.583322
H     -4.789137   -1.764057   -1.157050
H     -5.576079   -2.092605    0.487299
H      5.413904   -0.032106   -0.988343
H      4.821739    0.651160    0.556097
H      4.193792    1.321272   -1.055485
H      3.282380   -0.338822   -2.609679
H      2.485099   -1.848675   -2.011614
H      4.260745   -1.736319   -2.097601
H     -1.197263    3.366002    0.107888
H      0.375194    3.883037   -0.637191
H      0.988982   -3.356605    0.688767
H     -2.404613    1.358730   -0.342948
H     -0.782623   -2.972219    1.146671
H      2.175933    1.596724   -1.185488
H      1.334133    0.083144   -1.846580
H      4.320179   -1.450924    1.410524
H      4.964211   -2.180242   -0.104476
H     -4.782120   -0.159808    1.455296
H      2.367367    0.441216    1.001377
H     -0.287869    1.797663   -1.292182
H     -3.151649   -3.662636    1.579180
