49

C     -0.741002    4.263989    0.333873
C      3.932279   -1.592925    1.733018
C     -3.571353    0.264413    1.358822
C      5.306183   -1.512830    1.668073
C     -4.853904   -0.157409    1.625459
C      3.747250    0.032393    0.053096
C     -3.735034   -0.448338   -0.873915
C      1.043030   -0.462977   -1.340989
C      7.337205    0.472142   -0.599664
C     -6.907560   -2.076019   -0.591562
C     -0.999525    2.970395   -0.347955
C      3.116833   -0.821499    0.926136
C     -2.975724    0.136654    0.121569
C      0.792073   -0.083307    0.100361
C      5.913866   -0.651055    0.786303
C     -5.576211   -0.736846    0.599518
C      5.137010    0.132383   -0.032325
C     -5.023414   -0.888832   -0.663705
C     -0.634668   -0.471210    0.313212
C      1.667176   -0.882636    0.981228
C     -1.588300    0.605144   -0.125061
C     -0.801045   -1.619155   -0.615597
O     -0.939291    2.816131   -1.582070
O      1.152790   -1.659575    1.824292
O     -1.381520   -2.712515   -0.471234
O     -0.121280   -1.190267   -1.774686
O      7.268402   -0.374233    0.517900
O     -6.866626   -1.245579    0.577689
O      6.000882    0.892938   -0.806332
O     -5.968640   -1.494918   -1.482742
O     -1.326888    1.860517    0.403285
H     -1.115415    4.213456    1.376631
H      0.298171    4.605588    0.247337
H     -1.373821    5.058176   -0.160132
H      3.453707   -2.269758    2.425543
H     -3.030040    0.715794    2.186665
H      5.923820   -2.119690    2.302516
H     -5.303175   -0.042628    2.622044
H      3.146303    0.672586   -0.608427
H     -3.248799   -0.542851   -1.850275
H      1.150153    0.466677   -1.924135
H      1.901249   -1.159519   -1.458565
H      7.910971    1.384503   -0.325987
H      7.766539   -0.034466   -1.492055
H     -7.911897   -2.043498   -1.035183
H     -6.606877   -3.114331   -0.325887
H      0.963727    1.011879    0.227248
H     -0.846954   -0.853255    1.328977
H     -1.480659    0.686362   -1.238746
