39

C      3.188057   -1.119806   -0.006203
C     -3.293477   -0.464572    0.121863
C     -2.014144    1.892752    0.918464
C     -1.263371    1.521745   -1.354450
C      2.365567    1.080270    0.564623
C      1.023440    1.777143    0.611352
C     -0.519526   -1.848755   -1.406673
C      0.672454   -0.929515   -1.207458
C     -0.038618   -1.724006    0.869256
C      2.106854   -0.401348    0.786156
C     -1.977985   -0.420767    0.014192
C     -1.245005   -1.709283   -0.086877
C      0.045144    0.677112    0.641055
C     -1.282491    0.895899   -0.002330
C      0.746869   -0.580081    0.222630
H      3.028592   -2.205023   -0.053217
H      4.146481   -0.910898    0.554192
H      3.342813   -0.650036   -1.004478
H     -3.844027   -1.402486    0.138161
H     -3.829882    0.476892    0.195772
H     -2.905439    2.286845    0.398197
H     -1.308574    2.757034    1.020179
H     -2.240677    1.445579    1.891806
H     -1.502575    0.780978   -2.174156
H     -2.089839    2.288022   -1.461958
H     -0.353110    2.025962   -1.659966
H      2.823206    1.256119   -0.436177
H      3.060546    1.406443    1.342170
H      0.960819    2.502839   -0.189808
H      1.041039    2.382154    1.568060
H     -0.227413   -2.915937   -1.494056
H     -1.122058   -1.598998   -2.271916
H      1.575978   -1.568833   -1.446755
H      0.711398   -0.104693   -1.921758
H     -0.339853   -1.488519    1.888611
H      0.448997   -2.686680    0.728208
H      2.202489   -0.683074    1.849127
H     -1.887159   -2.557603    0.114839
H     -0.205519    0.517122    1.739324
