47

C      5.322265    0.445850    1.167262
C      5.100375   -0.560833   -1.193769
C     -4.245447   -1.249993    1.138601
C     -3.796714    1.108668    0.857677
C     -2.969946    0.646257   -1.896384
C     -1.492982    0.459945   -1.633295
C     -3.747622   -0.344540   -1.106870
C      2.234600   -0.431280    1.050967
C      1.103860    1.072180   -0.880199
C     -1.475095   -0.918231    1.871224
C      4.506164   -0.154056    0.086617
C     -1.169572    0.587797   -0.142348
C      3.093303    0.213002    0.138318
C      0.287593    0.430317    0.009704
C      0.874583   -0.321244    0.983905
C     -1.927113   -0.537297    0.498080
C      2.477901    0.968480   -0.817484
C      0.007970   -1.005904    1.929266
C     -3.383665   -0.257634    0.383476
O      3.218264    1.688083   -1.752229
O      0.573835   -1.698483    2.821814
H      5.695142   -0.184545    1.972971
H      4.764209    1.313724    1.650691
H      6.238412    0.975615    0.756464
H      6.181458   -0.797676   -1.042107
H      4.987949    0.036949   -2.080207
H      4.639272   -1.573940   -1.499075
H     -4.419638   -0.916975    2.184298
H     -3.778850   -2.259803    1.146530
H     -5.249719   -1.243963    0.641874
H     -4.903254    1.154367    0.645160
H     -3.374440    1.949787    0.316243
H     -3.678188    1.272482    1.927132
H     -3.255318    1.700755   -1.718159
H     -3.151228    0.437875   -2.962009
H     -1.238246   -0.598574   -1.885268
H     -0.911712    1.112423   -2.275519
H     -3.392606   -1.360891   -1.409346
H     -4.832884   -0.244845   -1.265329
H      2.648040   -1.050270    1.850277
H      0.709203    1.730019   -1.666739
H     -1.914892   -0.309750    2.693926
H     -1.850556   -1.972470    2.061228
H      4.427754   -1.305030    0.591943
H     -1.404275    1.598169    0.253298
H     -1.704057   -1.438122   -0.144178
H      4.175868    1.833605   -1.817084
