47

C      5.004649    0.183912    1.664103
C      5.173890   -0.773236   -0.626113
C     -4.077211    1.172369    0.606185
C     -3.970631   -1.245551    1.158258
C     -0.008911   -0.140450    2.128934
C     -1.443171   -0.195725    1.845417
C     -3.028490    0.605963   -1.969746
C     -3.704718   -0.493468   -1.139841
C      2.268567    0.099549    1.157361
C      1.218309    0.354396   -1.355774
C      4.586279    0.337025    0.217343
C      0.879085    0.050226    0.967025
C      3.100437    0.275803    0.082182
C      0.354620    0.177640   -0.288152
C     -1.911761   -0.048775    0.464002
C     -1.558129    0.281992   -1.942128
C      2.585701    0.404890   -1.183520
C     -1.106652    0.125784   -0.546024
C     -3.401934   -0.123175    0.291555
O     -1.398241   -0.904624   -2.675078
O      3.391214    0.583176   -2.286522
H      4.521330    0.909804    2.316938
H      4.767502   -0.867005    1.967618
H      6.105638    0.290067    1.711807
H      6.160221   -1.073548   -0.174436
H      5.398707   -0.430091   -1.648446
H      4.494152   -1.648620   -0.664458
H     -3.426485    2.046424    0.373690
H     -4.969265    1.262392   -0.056071
H     -4.465957    1.225165    1.643681
H     -3.276404   -2.101718    1.099769
H     -4.143438   -0.908974    2.191773
H     -4.942294   -1.525653    0.692164
H      0.273449   -1.094960    2.655056
H      0.196503    0.651065    2.906651
H     -1.947226    0.653642    2.415408
H     -1.938085   -1.117626    2.292267
H     -3.360790    0.470766   -3.037616
H     -3.276996    1.606687   -1.613533
H     -4.767512   -0.584039   -1.349607
H     -3.175317   -1.433056   -1.379534
H      2.704351    0.001381    2.137639
H      0.815519    0.449376   -2.335939
H      4.896318    1.338913   -0.150956
H     -1.038934    1.130492   -2.457073
H     -1.543530   -0.652699   -3.621077
H      2.985641    0.674094   -3.196269
