56

C     -1.350804    3.696616   -2.019664
C      5.493322   -0.279870    0.363764
C      5.013726    1.759664   -0.872387
C     -2.895435   -3.462046    0.193333
C     -2.088164    2.536529   -1.381065
C     -3.003458    0.006197    1.764960
C     -3.476475   -1.309833    1.272181
C     -1.593812    0.371391    1.560804
C      2.759859   -0.730237    0.344486
C      0.896986    1.303473    0.323096
C     -0.350275   -2.703798   -0.224307
C     -2.982456   -1.487724   -1.205308
C      4.619232    0.962056    0.352137
C      3.203772    0.574592    0.343046
C      1.396778   -1.069044    0.335335
C      0.499246   -0.028100    0.324385
C      2.243461    1.574062    0.332269
C      1.003712   -2.484187    0.349284
C     -1.230138   -1.729161    0.538960
C     -1.722495    0.312029   -0.814718
C     -2.691571   -1.937813    0.186084
C     -0.943497   -0.288428    0.320246
O      2.619087    2.927140    0.330285
O      1.754382   -3.359051    0.800263
O     -1.227499    1.452551   -1.357495
O     -1.921314   -0.718792   -1.742181
H     -0.298616    3.641588   -1.634380
H     -1.395930    3.685548   -3.116077
H     -1.769546    4.644128   -1.581441
H      5.212084   -0.892358    1.220442
H      6.541705    0.077745    0.390733
H      5.360104   -0.796212   -0.617913
H      4.708250    2.817306   -0.812584
H      6.141727    1.769611   -0.890646
H      4.707575    1.260129   -1.798388
H     -2.444087   -3.925934    1.077337
H     -2.554524   -3.865284   -0.770283
H     -4.010905   -3.599135    0.219457
H     -3.061120    2.333914   -1.832538
H     -2.291848    2.849760   -0.320051
H     -3.646954    0.803310    1.326475
H     -3.210998    0.071572    2.875842
H     -4.547084   -1.243669    0.915333
H     -3.524770   -2.031133    2.127268
H     -1.449055    1.487777    1.467336
H     -0.939881    0.066987    2.410835
H      3.478112   -1.532107    0.353734
H      0.186232    2.115321    0.323977
H     -0.373832   -2.519768   -1.316139
H     -0.667688   -3.708541    0.060637
H     -3.876432   -0.850960   -1.215942
H     -3.142044   -2.315234   -1.927004
H      4.827258    1.591656    1.239178
H     -1.144565   -2.086240    1.587278
H     -2.769561    0.598524   -0.502734
H      1.930225    3.663481    0.322468
