48

C      4.791379   -1.542696   -0.595540
C      5.335458    0.842365   -0.234527
C     -4.152301   -0.671525   -1.123225
C     -3.327826   -2.041208    0.689566
C     -3.217909    1.714114    0.587442
C     -3.661240    0.334501    1.043146
C     -1.699669    1.723394    0.792678
C      2.216561   -0.677524   -0.806627
C      1.127338    1.262459    0.806792
C      4.450545   -0.301259    0.230289
C      3.004745    0.013546    0.114076
C      0.878294   -0.379359   -0.902675
C      0.341420    0.593404   -0.090082
C      2.472322    0.985299    0.925904
C      0.034175   -1.104478   -1.880271
C     -1.427773   -0.842005   -1.819376
C     -1.755799   -0.514457   -0.376125
C     -1.316126    1.429593   -1.578012
C     -3.157306   -0.666358    0.012434
C     -1.122075    0.837935   -0.244712
O      3.265726    1.661564    1.833288
O      0.563607   -1.888456   -2.698953
O     -1.198684    2.646080   -1.852785
O     -1.644876    0.407178   -2.449469
H      4.076833   -2.338423   -0.282657
H      4.733921   -1.291875   -1.656356
H      5.822885   -1.834524   -0.320350
H      4.722379    1.717523   -0.466257
H      6.114836    1.063381    0.501873
H      5.861227    0.549953   -1.183570
H     -3.988729   -1.463083   -1.857253
H     -5.148719   -0.920269   -0.647419
H     -4.272363    0.294151   -1.607536
H     -4.200986   -2.058334    1.356939
H     -3.412705   -2.773377   -0.145596
H     -2.377493   -2.321061    1.217883
H     -3.721385    2.518699    1.119865
H     -3.374377    1.865257   -0.499836
H     -3.135837    0.127944    2.000672
H     -4.745726    0.245131    1.127033
H     -1.526162    1.417300    1.821854
H     -1.391115    2.772400    0.579659
H      2.663865   -1.449068   -1.446369
H      0.709658    2.025970    1.443492
H      4.665617   -0.530860    1.286064
H     -1.995301   -1.662633   -2.237910
H     -1.123518   -1.234422    0.225401
H      4.243208    1.458111    1.928299
