54

C      5.038355    0.792893   -1.435986
C      5.326189   -0.402313    0.709330
C     -3.951623   -1.210341   -1.769471
C     -0.827766    3.174159    0.764502
C     -2.142748   -2.390514    1.187534
C      0.132096    0.052909   -2.140752
C     -1.346020    0.060765   -1.944873
C     -3.401711   -2.029093    0.459524
C     -1.353018   -1.195058    1.653649
C      2.273706    0.359141   -1.009836
C      1.188811    0.141891    1.452942
C     -3.799966    0.401998    0.045008
C      4.561095    0.690798   -0.025805
C      0.901764    0.145695   -0.889332
C      3.105260    0.464828    0.074162
C      0.344375    0.034267    0.366681
C      2.551432    0.353950    1.330133
C     -1.712764   -0.743887   -0.727207
C     -1.791035    1.096527    0.966377
C     -3.187952   -0.865537   -0.510067
C     -1.111257   -0.193116    0.536932
O      3.360852    0.455194    2.465778
O     -1.534291    2.146932    0.111347
O     -3.142370    0.868357    1.165799
H      6.156171    0.838892   -1.409560
H      4.729196   -0.088279   -2.031426
H      4.692934    1.750197   -1.866444
H      5.741679   -0.022027    1.669431
H      4.644310   -1.274173    0.898938
H      6.188889   -0.716253    0.090967
H     -3.891026   -0.410450   -2.532743
H     -3.675852   -2.199503   -2.171542
H     -5.023644   -1.277764   -1.480379
H     -1.476228    3.521886    1.619370
H     -0.686391    4.042487    0.116958
H      0.113575    2.823447    1.207743
H     -2.454730   -2.938228    2.117351
H     -1.505526   -3.121447    0.632524
H      0.390524    0.862345   -2.867042
H      0.455481   -0.901120   -2.643069
H     -1.796445   -0.482836   -2.822488
H     -1.748293    1.076002   -1.954717
H     -4.204931   -1.792504    1.173087
H     -3.727794   -2.952899   -0.097239
H     -0.365387   -1.583129    2.001239
H     -1.863688   -0.761966    2.518967
H      2.738783    0.450732   -1.990282
H      0.765502    0.056606    2.440559
H     -3.892233    1.144742   -0.762065
H     -4.833150    0.140110    0.357371
H      4.786525    1.644793    0.488732
H     -1.305313   -1.763697   -0.876504
H     -1.360528    1.353965    1.957089
H      2.926172    0.369627    3.378805
