54

C      5.038475   -0.524712    1.647452
C      5.147469    1.462211    0.179657
C     -4.003112   -1.610452    1.265830
C     -0.962311    3.351613   -1.118741
C     -2.148242   -1.706401   -2.008260
C      0.063145   -1.185007    2.046295
C     -1.377282   -0.763404    1.868237
C     -3.379073   -1.754439   -1.164312
C     -1.369766   -0.424040   -1.896991
C      2.278890   -0.515547    1.136008
C      1.198394    0.567684   -1.175035
C     -3.670017    0.409164   -0.096177
C      4.577320    0.093180    0.358452
C      0.886088   -0.557193    0.967563
C      3.110937    0.043974    0.191559
C      0.386264   -0.013106   -0.185615
C      2.556066    0.578654   -0.953036
C     -1.709862   -1.034022    0.425069
C     -1.576644    1.393114   -0.172169
C     -3.195194   -1.028105    0.155927
C     -1.087230   -0.001789   -0.474490
O      3.421264    1.133725   -1.882850
O     -1.679328    2.192070   -1.304275
O     -2.828866    1.320969    0.489897
H      6.157401   -0.557276    1.607762
H      4.637073   -1.553935    1.745225
H      4.677500    0.091471    2.487134
H      5.930562    1.651759    0.931746
H      5.616844    1.588309   -0.810978
H      4.342866    2.201330    0.368485
H     -3.549797   -2.511894    1.713160
H     -5.027237   -1.805666    0.904832
H     -4.090216   -0.826272    2.061899
H     -1.333224    3.937488   -0.248284
H     -1.101932    3.980529   -2.026661
H      0.116945    3.234652   -0.979871
H     -1.471631   -2.589110   -1.826734
H     -2.461097   -1.801240   -3.068684
H      0.410850   -0.789690    3.043503
H      0.128986   -2.288624    2.018249
H     -2.065641   -1.311485    2.520926
H     -1.474296    0.310292    2.088488
H     -3.559295   -2.831869   -0.903468
H     -4.292837   -1.416685   -1.692978
H     -0.368682   -0.648498   -2.370276
H     -1.796124    0.388696   -2.517649
H      2.690798   -0.931532    2.023029
H      0.788900    0.986982   -2.064082
H     -4.671912    0.534018    0.352275
H     -3.760179    0.634744   -1.164032
H      5.002970   -0.551567   -0.466097
H     -1.275086   -2.014710    0.163668
H     -0.927654    1.921116    0.554525
H      3.047758    1.540527   -2.745105
