57

C     -2.155960    3.646754   -0.146181
C      5.455176    1.046013    0.585559
C      4.917564    0.546149   -1.698519
C     -2.790599   -3.475076   -0.372200
C     -2.471187    2.652967   -1.190637
C     -2.303054   -1.112234    2.347177
C      1.159155   -2.277852   -0.057650
C     -0.203662   -2.305948   -0.810521
C     -3.240004   -1.642816    1.327518
C     -1.283380   -0.117882    1.930980
C      2.732171   -0.361601   -0.148254
C      0.758413    1.464875    0.153627
C     -3.126840   -1.169388   -1.089338
C      4.423738    1.444846   -0.500417
C      1.440046   -0.805536   -0.002611
C      3.069100    0.999423   -0.150044
C      0.422905    0.133666    0.156135
C      2.072045    1.928908    0.006308
C     -1.141207   -1.707507    0.155998
C     -1.981715    0.681999   -0.206000
C     -2.594064   -2.062932    0.012518
C     -1.016273   -0.219512    0.384688
O      2.281975    3.321289    0.028572
O     -1.792818    1.461695   -1.279933
O     -3.267541    0.067452   -0.500387
H     -1.139126    4.127268   -0.284872
H     -2.890332    4.502012   -0.274109
H     -2.312165    3.336312    0.919279
H      5.869375    2.024999    1.010417
H      6.274507    0.428186    0.216506
H      4.899386    0.478190    1.351468
H      4.171263    0.419868   -2.465029
H      5.793749    1.080020   -2.107335
H      5.296138   -0.412166   -1.231924
H     -3.795583   -3.843429   -0.097760
H     -2.764176   -3.505735   -1.504473
H     -1.961847   -4.173251   -0.052306
H     -3.583441    2.348108   -0.998983
H     -2.587540    3.175602   -2.168972
H     -2.958423   -0.617723    3.139229
H     -1.835238   -1.973824    2.909612
H      1.032114   -2.654470    0.984921
H      1.853183   -2.824917   -0.685047
H     -0.067896   -1.627289   -1.666584
H     -0.439137   -3.333659   -1.089486
H     -4.106239   -0.991667    1.137581
H     -3.654567   -2.619630    1.735508
H     -0.332872   -0.296101    2.459630
H     -1.585925    0.927813    2.106398
H      3.495950   -1.077217   -0.254017
H      0.035934    2.242052    0.317577
H     -4.138690   -1.494896   -1.419196
H     -2.383873   -1.175414   -1.916501
H      4.509321    2.466376   -0.770866
H     -0.843775   -2.160933    1.188698
H     -2.423094    1.388587    0.619300
H      3.209033    3.699172   -0.045051
