48

C     -5.294734   -0.449398    1.027850
C     -5.012574   -1.046649   -1.330346
C      3.957318    0.175943    1.255563
C      3.464424   -2.060862    0.436017
C      3.128178    1.224620   -1.426841
C      3.583649   -0.186999   -1.123858
C      1.612297    1.181010   -1.505783
C     -1.052497    0.864985   -1.273258
C     -2.479424   -0.074238    0.931257
C     -4.651228   -0.044050   -0.254226
C     -3.188416    0.161049   -0.151402
C     -2.489320    0.650587   -1.322833
C     -0.408281    0.609757   -0.157248
C      1.261958   -0.206652    1.903595
C      1.659734   -0.429835    0.437798
C     -0.210320   -0.302868    2.082910
C      1.362781    1.838517    0.873979
C      3.124984   -0.573490    0.268872
C      1.079566    0.847346   -0.159196
C     -1.028015    0.117773    1.069957
O     -3.100019    0.901418   -2.405151
O      1.298209    3.083156    0.778826
O      1.732456    1.151856    2.033488
O     -0.817430    0.963287    2.277815
H     -6.402962   -0.265383    0.910104
H     -4.978635    0.159740    1.875004
H     -5.137553   -1.543925    1.166208
H     -6.120009   -1.213232   -1.232184
H     -4.508599   -2.008915   -1.219395
H     -4.890570   -0.602942   -2.356845
H      3.803317   -0.189842    2.311014
H      5.032874   -0.097717    1.039482
H      3.907217    1.262234    1.185075
H      2.639850   -2.707680    0.114705
H      3.615625   -2.259646    1.537533
H      4.425836   -2.263650   -0.074851
H      3.404939    1.953304   -0.666557
H      3.550938    1.533181   -2.408148
H      4.674804   -0.313240   -1.184672
H      3.136924   -0.858549   -1.881106
H      1.192672    2.164810   -1.795738
H      1.359010    0.362986   -2.206356
H     -0.558862    1.231039   -2.171087
H     -3.029587   -0.445988    1.800734
H     -5.088731    0.926903   -0.570085
H      1.847034   -0.824394    2.586324
H      1.107999   -1.288143    0.013661
H     -0.516825   -1.107214    2.814911
