48

C      5.257495   -1.028567    0.267320
C      5.069799    1.354303   -0.448253
C     -3.569978   -1.178735   -1.729294
C     -3.228701    1.219639   -1.863446
C     -3.297283    1.141741    1.268037
C     -3.796233    0.169182    0.272298
C     -1.812279    1.396193    1.202928
C      0.955053    1.351975    0.980482
C      2.512769   -0.834367    0.340604
C      4.656734    0.329403    0.568111
C      3.178264    0.276329    0.617533
C      2.430032    1.461063    0.961715
C      0.336418    0.247741    0.704538
C     -1.118384   -1.634006   -0.710732
C     -1.515679   -0.170679   -0.727715
C      0.348813   -1.827335   -0.483870
C     -1.633004   -1.049251    1.397998
C     -2.974777    0.008338   -0.955790
C     -1.135733    0.175314    0.728913
C      1.057277   -0.994619    0.361265
O      3.006075    2.540469    1.234350
O     -1.801251   -1.132964    2.647704
O     -1.870300   -2.044943    0.444053
O      0.638936   -2.192003    0.951173
H      6.364578   -0.979032    0.247952
H      4.965457   -1.779242    1.000891
H      4.958713   -1.298311   -0.781500
H      5.454245    0.877790   -1.375536
H      5.911083    1.964872   -0.019415
H      4.211686    1.991681   -0.682467
H     -3.635208   -2.072070   -1.106906
H     -3.103301   -1.307281   -2.706289
H     -4.635835   -0.864425   -1.932019
H     -4.237939    1.080640   -2.308730
H     -2.489358    1.207625   -2.673281
H     -3.230564    2.161103   -1.281218
H     -3.510322    0.745416    2.290173
H     -3.830834    2.123906    1.215787
H     -3.993210   -0.846380    0.717353
H     -4.820072    0.514933   -0.058519
H     -1.444152    1.653485    2.199027
H     -1.662940    2.272246    0.554470
H      0.449969    2.289409    1.248275
H      3.149875   -1.687375    0.076668
H      5.019857    0.632511    1.551895
H     -1.501590   -2.147697   -1.619264
H     -0.912099    0.416489   -1.433006
H      0.827897   -2.571415   -1.154264
