50

C      4.960712   -0.938476    1.300896
C      5.221486    0.942689   -0.234369
C     -3.797955    1.340139    1.334070
C     -4.066691   -0.996446    0.720926
C     -2.750063    1.520908   -1.721516
C     -3.760793    0.669308   -1.021380
C     -1.472848    0.739835   -1.904099
C      2.279827   -0.639137    0.792042
C      1.187618    0.021127   -1.655291
C      4.595466   -0.422707   -0.084219
C      3.121055   -0.369650   -0.258298
C      0.880546   -0.580638    0.627681
C      0.332105   -0.253404   -0.584686
C      2.568241   -0.042390   -1.471689
C     -0.006264   -0.871987    1.771597
C     -1.404252   -1.103878    1.273740
C     -1.838043    0.158765    0.512993
C     -1.603418   -1.572688   -0.969094
C     -3.312622    0.256231    0.362107
C     -1.138148   -0.182363   -0.803740
O      3.425730    0.226894   -2.527387
O     -0.053870    0.314331    2.540170
O     -2.004825   -2.211921   -1.965057
O     -1.512535   -2.117553    0.306446
H      4.633832   -0.238972    2.095012
H      4.452195   -1.911422    1.500995
H      6.050030   -1.144496    1.335082
H      5.589102    1.305368    0.745970
H      4.477929    1.702085   -0.564172
H      6.120895    0.923578   -0.905513
H     -3.658382    2.340225    0.915218
H     -4.854289    1.145030    1.548363
H     -3.222630    1.245038    2.291008
H     -3.821080   -1.860965    0.076593
H     -4.051896   -1.227665    1.802105
H     -5.151228   -0.771898    0.491693
H     -3.167350    1.810320   -2.705004
H     -2.602690    2.449467   -1.143675
H     -3.992542   -0.230381   -1.634716
H     -4.688780    1.264990   -0.915416
H     -1.540455    0.183484   -2.856166
H     -0.659254    1.522310   -1.962164
H      2.650025   -0.905796    1.783377
H      0.806962    0.283241   -2.631159
H      5.084055   -1.094556   -0.816777
H      0.361853   -1.714574    2.392682
H     -2.045249   -1.275793    2.157112
H     -1.387763    1.066049    0.972664
H      4.404064    0.179229   -2.410222
H      0.362184    1.069116    2.095268
