49

C      5.078156   -1.210600   -0.073888
C      5.285185    1.111302    0.684621
C     -3.970636   -1.378069   -1.114722
C     -3.190548    1.960128    0.032140
C     -1.177790   -1.532200   -1.020772
C     -3.997441    0.700151    0.150664
C     -1.813990    1.852302    0.612185
C      0.294999   -1.393708   -1.099595
C      1.098378    1.807282   -0.325464
C      2.313650   -0.697836    0.054436
C     -3.015606   -1.291418    1.162376
C      4.599767    0.198470   -0.306816
C      3.119471    0.303655   -0.230867
C      2.531875    1.621642   -0.435187
C     -1.854161   -0.197871   -0.741856
C      0.331793    0.785315   -0.057047
C     -0.904281   -0.313413    1.486610
C     -3.205685   -0.540795   -0.110264
C      0.841896   -0.618609    0.129874
C     -1.104059    0.580289    0.275242
O      3.275895    2.614340   -0.710756
O     -1.991217   -0.935536    1.962306
O      0.212207   -1.104617    1.219728
H      6.191851   -1.168459   -0.021862
H      4.694789   -1.552582    0.905477
H      4.728510   -1.833657   -0.913411
H      5.830762    0.509371    1.453327
H      6.060651    1.751980    0.201362
H      4.571393    1.813034    1.178799
H     -4.980765   -1.594179   -0.690396
H     -4.162762   -0.714910   -1.993634
H     -3.458364   -2.296523   -1.403753
H     -3.752432    2.750545    0.607049
H     -3.203802    2.291621   -1.017504
H     -1.551013   -1.860136   -2.012634
H     -1.432251   -2.309228   -0.298176
H     -4.458757    0.683622    1.174520
H     -4.864606    0.804346   -0.557394
H     -1.848429    2.009838    1.728661
H     -1.222370    2.709816    0.226097
H      0.749767   -2.414395   -1.098638
H      0.565661   -0.801822   -1.979805
H      0.695490    2.789117   -0.468330
H      2.760812   -1.648898    0.248069
H     -3.969501   -1.140979    1.757166
H     -3.051325   -2.398453    0.932859
H      4.892740    0.551360   -1.319842
H     -1.997879    0.350322   -1.669903
H     -0.546026    0.399045    2.293805
