50

C      4.973351   -0.632624   -0.852235
C      5.018733    1.322704    0.662704
C     -4.043480   -0.560120   -1.012596
C     -3.196314    1.660007   -1.486183
C     -2.625134    1.430185    1.756997
C     -3.719707    1.027210    0.792032
C     -1.906554    0.108431    2.089546
C      2.244825   -0.694192   -0.423300
C      1.057868    0.266982    1.883071
C      4.486619   -0.058051    0.471174
C      3.018213   -0.145795    0.589844
C      0.879172   -0.758374   -0.275711
C      0.276294   -0.271049    0.894036
C      2.438318    0.336759    1.744371
C      0.099712   -1.351362   -1.387013
C     -1.370997   -1.107727   -1.296603
C     -1.697806    0.090963   -0.410998
C     -1.478977   -1.877890    0.790491
C     -3.097100    0.517300   -0.459274
C     -1.191691   -0.402339    0.918895
O      3.237097    0.879948    2.740993
O      0.319829   -2.741759   -1.324981
O     -1.357113   -2.763350    1.693731
O     -1.912163   -2.161507   -0.493131
H      4.657783   -1.688698   -0.973628
H      6.081629   -0.634982   -0.873238
H      4.599161   -0.064975   -1.711363
H      5.220002    1.583659    1.723056
H      5.968494    1.505523    0.114548
H      4.293488    2.070463    0.235939
H     -3.834944   -0.789535   -2.058399
H     -5.058926   -0.063569   -1.000893
H     -4.121136   -1.413074   -0.338148
H     -2.459556    2.442747   -1.222544
H     -4.223150    2.121650   -1.419376
H     -2.991821    1.288591   -2.504902
H     -3.136449    1.748331    2.693852
H     -1.941166    2.169887    1.343809
H     -4.309910    0.209862    1.263188
H     -4.422986    1.858982    0.590236
H     -2.775048   -0.579920    2.335076
H     -1.383610    0.226346    3.029812
H      2.747541   -1.068180   -1.329301
H      0.560190    0.633146    2.768446
H      4.930754   -0.708564    1.261379
H      0.527472   -1.041253   -2.377479
H     -1.823574   -1.050442   -2.281807
H     -1.005431    0.905712   -0.756746
H      2.904210    1.248037    3.598886
H      0.543987   -3.024095   -0.401267
