48

C      4.167096   -0.898117    1.125031
C      0.929407    4.680881    0.751196
C     -4.501646   -1.633049    0.071039
C     -3.127834   -1.802108   -0.044101
C     -5.001574   -0.361401    0.197112
C     -0.382978   -1.156480    1.333313
C      0.600337   -2.234506    1.052026
C      0.460495   -0.689226   -2.118267
C      2.122946   -2.102296   -0.798528
C      2.945329   -0.240688    0.584223
C      1.507801    0.236349   -1.439462
C      2.483643   -0.621629   -0.753675
C     -2.312103   -0.713483   -0.029802
C     -4.169182    0.735006    0.208660
C     -0.217923   -1.543327   -1.033215
C      0.705857    1.171670   -0.638429
C     -2.808109    0.564366    0.092197
C     -0.508410    0.780480   -0.249032
C      1.156214    2.487920   -0.291488
C     -0.825399   -0.640507   -0.022042
N     -1.732206    1.494058   -0.028552
N      0.772244   -2.348561   -0.359601
O      2.378623    0.573511    1.252167
O     -4.758922    1.987974    0.340398
O      2.290882    2.876010   -0.665619
O      0.402108    3.386265    0.450065
H      4.900621   -0.976767    0.294217
H      3.959837   -1.932860    1.482388
H      4.625232   -0.303558    1.944628
H      0.116409    5.380157    1.034569
H      1.711369    4.590688    1.547248
H      1.404967    5.063919   -0.181510
H     -5.184367   -2.479990    0.063508
H     -2.759479   -2.815218   -0.142260
H     -6.067713   -0.223756    0.288579
H     -0.035174   -0.337580    1.983906
H     -1.264487   -1.594183    1.882316
H      0.210672   -3.224283    1.440616
H      1.544740   -2.016933    1.592050
H     -0.280573   -0.025983   -2.565822
H      0.983161   -1.333072   -2.829056
H      2.304695   -2.505007   -1.808405
H      2.800994   -2.609189   -0.083116
H      1.957052    0.764971   -2.344727
H      3.436155   -0.588762   -1.396998
H     -0.980715   -2.135531   -1.569153
H     -1.821752    2.526778    0.033680
H     -4.138340    2.787046    0.347729
