44

C     -0.730195    1.351096    0.712437
C      2.412344   -0.821951   -0.604243
C     -1.579666    1.501804    1.790171
C      3.643422   -0.425368   -0.103740
C     -2.641664    0.962371   -0.642529
C      1.592324   -1.084565    1.648026
C      0.262506   -0.574328   -3.617033
C     -5.188327    1.262673    1.989361
C      4.493421    0.238878    3.337016
C     -1.255030    1.078313   -0.521344
C      1.399472   -1.147315    0.254911
C     -0.594408   -0.440543   -2.393021
C     -2.953265    1.390757    1.690322
C      3.830825   -0.364291    1.279991
C     -3.473861    1.117798    0.453310
C      2.815269   -0.690696    2.138698
C     -0.399362   -1.651435   -1.597383
C     -0.403916    0.900263   -1.716916
C      0.107180   -1.554711   -0.229709
C      0.612314   -2.453472   -2.370463
O     -0.908441    1.825712   -2.690600
O     -0.756886   -1.889788    0.680038
O      1.287422   -3.438712   -1.987267
O      0.684892   -1.906303   -3.634028
O     -3.958819    1.506749    2.641928
O      4.940883   -0.006764    2.018191
O     -4.859232    1.059054    0.628744
O      3.291975   -0.536423    3.430160
H      0.349674    1.459809    0.883138
H      2.285134   -0.868703   -1.687876
H     -1.126335    1.719243    2.762221
H      4.438784   -0.169709   -0.783685
H     -3.118587    0.747636   -1.592337
H      0.781226   -1.345045    2.339279
H      1.141148    0.088891   -3.507400
H     -0.325058   -0.319086   -4.536004
H     -5.635509    0.352338    2.452979
H     -5.870886    2.140210    2.056725
H      5.270203   -0.214359    4.011301
H      4.329126    1.295266    3.558881
H     -1.696319   -0.442145   -2.716641
H     -1.326453   -2.325175   -1.623120
H      0.622190    1.200614   -1.559903
H     -1.789513    1.471413   -2.982235
