44

C     -3.289924   -1.843341    0.380616
C      3.558814    1.304002    0.502883
C     -4.643405   -2.087009    0.425752
C      4.882921    1.635225    0.352550
C     -3.573239    0.144008   -0.831547
C      4.052401   -0.977348    0.246251
C     -1.423386    1.575178    0.951664
C     -7.221901    0.122334   -0.730084
C      7.681513   -0.597740    0.080733
C     -2.712363   -0.749937   -0.231542
C      3.079245    0.008133    0.459025
C     -0.747898    0.189743    0.976303
C     -5.478286   -1.179342   -0.180373
C      5.807019    0.651826    0.146404
C     -4.931819   -0.069229   -0.804943
C      5.384809   -0.666364    0.093260
C      0.684016    0.690396    0.777513
C     -1.240806   -0.577425   -0.230899
C      1.675604   -0.347897    0.609813
C      0.448383    1.546943   -0.418532
O     -0.721756   -0.153253   -1.424474
O      1.370355   -1.558224    0.587415
O      1.190785    1.651868   -1.416415
O     -0.777190    2.178339   -0.140811
O     -6.855974   -1.172017   -0.287367
O      7.178701    0.726548   -0.031627
O     -6.026185    0.620469   -1.299768
O      6.544542   -1.405145   -0.124010
H     -2.620407   -2.562462    0.861442
H      2.858333    2.115110    0.671630
H     -5.066094   -2.962430    0.918830
H      5.154675    2.678807    0.402996
H     -3.162778    1.008786   -1.322709
H      3.763665   -2.017898    0.198319
H     -1.151904    2.075885    1.920399
H     -2.502680    1.526330    0.908423
H     -8.010561   -0.008935   -1.493412
H     -7.550148    0.718146    0.142911
H      8.430605   -0.705014   -0.741128
H      8.130148   -0.725364    1.086226
H     -0.906257   -0.328348    1.916271
H      0.896062    1.344477    1.641771
H     -0.833337   -1.625742   -0.083482
H     -1.324297   -0.192087   -2.192521
