77

C      9.535889    0.012846   -0.434162
C     -6.663997    2.261421   -0.125797
C     -6.077088    0.921115   -2.084371
C     -6.936460   -0.104712    2.294053
C      8.894408   -0.925545    0.578575
C      7.870333   -1.770728   -0.145727
C      6.847420   -0.765257   -0.733035
C      5.795458   -1.481004   -1.476643
C      4.818316   -0.699138   -2.215870
C      3.988879    0.302270   -1.490636
C      4.653161    1.519219   -0.967081
C      3.733583    2.461036   -0.279842
C      3.086289    2.093586    0.964681
C      2.162103    0.955736    1.098334
C      0.977068    0.968107    0.191340
C      0.138982   -0.256428    0.401341
C     -0.373916   -0.326431    1.805609
C     -1.247861   -1.577609    2.010070
C     -8.447058   -0.454854   -0.663950
C     -4.920248    0.576383    0.039935
C     -5.777875   -1.693989    0.771382
C     -4.633235   -0.846445    0.316238
C     -7.283518   -0.105876   -0.181846
C     -2.369821   -1.469303    1.047731
C     -9.017640   -1.519759    0.153989
C     -6.272814    0.871561   -0.565430
C     -7.031641   -0.928324    1.027833
O     -2.210312   -1.926139   -0.137136
O    -10.123806   -2.079560   -0.030947
O     -3.597102   -0.911936    1.309899
O     -8.116339   -1.793214    1.164243
H      9.407005   -0.437724   -1.431098
H     10.622399    0.153917   -0.193336
H      8.995182    0.979039   -0.424144
H     -7.759557    2.367919    0.010927
H     -6.104708    2.519680    0.805303
H     -6.276379    2.974590   -0.888730
H     -5.084763    1.377248   -2.246884
H     -6.885998    1.539380   -2.522139
H     -6.096563   -0.094908   -2.524125
H     -7.239378    0.937099    2.183546
H     -5.903080   -0.230015    2.699876
H     -7.600574   -0.531363    3.101255
H      9.652818   -1.542545    1.095843
H      8.361996   -0.298562    1.331317
H      8.309408   -2.366905   -0.946013
H      7.330417   -2.390581    0.566178
H      7.317378    0.028577   -1.292038
H      6.378196   -0.395673    0.248034
H      5.266817   -2.243575   -0.804623
H      6.336618   -2.191421   -2.198899
H      4.064585   -1.380582   -2.770821
H      5.308254   -0.163584   -3.109661
H      3.150764    0.646704   -2.194536
H      3.436473   -0.222558   -0.672089
H      5.027273    2.140531   -1.899475
H      5.579340    1.370212   -0.387355
H      4.342815    3.416183   -0.077411
H      2.972005    2.760849   -1.091549
H      3.892268    1.917880    1.778039
H      2.556415    3.001492    1.416277
H      1.646447    1.154841    2.159748
H      2.677042    0.006250    1.254896
H      0.297431    1.840803    0.410876
H      1.228928    1.102686   -0.887571
H      0.691819   -1.192505    0.159706
H     -0.696157   -0.194001   -0.347055
H      0.461823   -0.348430    2.557055
H     -0.957361    0.587924    2.020773
H     -1.698567   -1.429133    3.022248
H     -0.657449   -2.486806    1.922245
H     -8.954612   -0.038880   -1.545682
H     -4.863103    1.130038    1.017974
H     -4.151118    0.997380   -0.638176
H     -6.036677   -2.483307    0.007617
H     -5.533918   -2.277206    1.703757
H     -4.213111   -1.317984   -0.613405
