77

C      9.713685    0.974514    0.877464
C     -7.346416    1.507323    1.771440
C     -6.283777   -0.758406    2.088662
C     -7.590219    1.934652   -1.468640
C      9.543588    1.123965   -0.596484
C      8.665615    0.098762   -1.204395
C      7.261452    0.121755   -0.778640
C      6.970274   -0.096208    0.664433
C      5.403037   -0.074006    0.747988
C      4.986638   -0.303274    2.156348
C      3.544719   -0.263164    2.469953
C      2.600094   -1.199800    1.849058
C      2.358370   -1.152389    0.380097
C      1.802616    0.209638   -0.032809
C      1.568424    0.318126   -1.480259
C      0.669189   -0.580989   -2.197188
C     -0.782221   -0.640367   -1.964153
C     -1.205981   -1.001739   -0.601106
C     -8.197127   -1.040360   -0.183772
C     -5.243869    0.896638    0.653953
C     -5.570433    0.482626   -1.743552
C     -4.831735    0.017169   -0.502721
C     -7.294036   -0.099682   -0.086911
C     -2.697173   -1.127326   -0.481674
C     -8.581280   -1.160738   -1.570267
C     -6.597098    0.371335    1.152038
C     -7.058979    0.488704   -1.402148
O     -3.307680   -2.190493   -0.288654
O     -9.445352   -1.983835   -2.010182
O     -3.448126    0.029832   -0.599781
O     -7.847259   -0.235249   -2.290406
H      9.392647   -0.000442    1.284263
H     10.835870    1.010380    1.060752
H      9.245997    1.794619    1.459152
H     -7.217306    2.400157    1.123064
H     -8.457181    1.326399    1.776698
H     -6.964818    1.733861    2.780905
H     -6.766227   -0.617260    3.060629
H     -5.185995   -0.858023    2.302709
H     -6.540927   -1.741269    1.600677
H     -8.517893    2.006601   -0.870521
H     -6.829197    2.675905   -1.235709
H     -7.920759    2.094203   -2.530248
H     10.535265    1.064807   -1.123869
H      9.068497    2.125948   -0.818380
H      8.735903    0.163763   -2.348695
H      9.089390   -0.949522   -0.984431
H      6.695777   -0.638412   -1.409458
H      6.737781    1.094784   -1.074124
H      7.226132    0.761214    1.321794
H      7.281381   -1.065442    1.038735
H      5.133758   -0.939909    0.115845
H      5.015163    0.849484    0.338887
H      5.553980    0.467723    2.772180
H      5.391746   -1.307672    2.518965
H      3.200491    0.820645    2.353913
H      3.451391   -0.375433    3.613705
H      1.577866   -1.068556    2.343060
H      2.839298   -2.275397    2.149378
H      3.106463   -1.555752   -0.282198
H      1.434217   -1.838753    0.237684
H      1.043354    0.492861    0.673467
H      2.649363    0.966411    0.182656
H      2.611057    0.215866   -1.962486
H      1.366253    1.414750   -1.698088
H      0.770813   -0.314769   -3.323808
H      1.106593   -1.641230   -2.227847
H     -1.180857    0.412897   -2.196489
H     -1.229043   -1.309668   -2.754991
H     -0.807291   -1.963772   -0.297607
H     -0.976738   -0.142327    0.081668
H     -8.608244   -1.646475    0.640325
H     -4.491966    0.733700    1.475428
H     -5.261589    1.961743    0.425403
H     -5.440702   -0.262257   -2.550071
H     -5.301270    1.482221   -2.067536
H     -5.157382   -1.025724   -0.303077
