48

C     -4.500966    1.128023   -0.299647
C     -2.454210    3.644438    2.210645
C      4.523618   -1.703369   -1.253565
C      3.172869   -1.872178   -1.105997
C      5.141772   -0.554065   -0.831675
C      0.847363   -1.677076    1.136649
C      0.102059   -2.854313    0.568973
C     -0.672019   -0.253288   -1.878465
C     -1.809310   -1.562797    0.419808
C     -3.674162    0.079529    0.344919
C     -1.492959    0.524827   -0.815324
C     -2.501601   -0.451262   -0.333808
C      2.412363   -0.852689   -0.514115
C      4.379022    0.440168   -0.253932
C      0.054577   -1.356999   -1.128008
C     -0.541609    1.055464    0.171883
C      3.008039    0.311073   -0.087879
C      0.725000    0.610866    0.179052
C     -0.900481    2.069326    1.119228
C      0.993447   -0.816669   -0.108104
N      1.992668    1.215441    0.349860
N     -0.827822   -2.214721   -0.381376
O     -3.995834   -0.321965    1.442524
O      4.998044    1.597337    0.171396
O     -0.041335    2.536904    1.945775
O     -2.159871    2.642621    1.252374
H     -5.260602    1.535823    0.412787
H     -5.117456    0.693573   -1.139860
H     -3.918543    1.941437   -0.748247
H     -3.500759    3.646015    2.517931
H     -1.797521    3.571753    3.102698
H     -2.234586    4.622043    1.731353
H      5.153001   -2.468350   -1.707469
H      2.714287   -2.789015   -1.448281
H      6.226566   -0.437013   -0.956302
H      1.858640   -2.039187    1.457828
H      0.399963   -1.182331    1.987284
H     -0.502907   -3.389877    1.323283
H      0.806225   -3.497091    0.022584
H      0.072077    0.417140   -2.302359
H     -1.352484   -0.729539   -2.586322
H     -1.504316   -1.216290    1.401055
H     -2.620756   -2.330363    0.606708
H     -2.015730    1.315629   -1.388377
H     -2.899015   -0.959446   -1.276341
H      0.571538   -1.981879   -1.877987
H      2.153569    2.173411    0.737425
H      5.990141    1.738931    0.073165
