34

C      3.414071    0.042092    1.881873
C      1.394205    2.474503   -1.851697
C      3.597726    0.750332    0.557601
C      1.004741    1.216109   -1.892559
C      3.286164   -0.177457   -0.593988
C     -5.262938   -1.514085    0.312749
C     -4.894896   -0.616052    1.275413
C     -4.366163   -1.890869   -0.685843
C     -3.628296   -0.088384    1.246858
C     -3.092103   -1.327399   -0.671943
C      1.874899   -0.688807   -0.556176
C     -2.701141   -0.421934    0.287456
C      0.854186    0.423224   -0.621862
C     -1.368801    0.150224    0.279812
O     -1.075164    0.971208    1.184349
O     -0.425804   -0.178941   -0.682987
H      3.197842   -1.039097    1.737301
H      4.270379    0.175134    2.557687
H      2.523576    0.484309    2.399644
H      1.496842    3.027361   -2.769803
H      1.618085    2.982950   -0.925145
H      4.698999    0.973206    0.481742
H      3.066969    1.708084    0.501067
H      0.797622    0.771516   -2.857565
H      3.951324   -1.068539   -0.460555
H      3.533918    0.255662   -1.561071
H     -6.254943   -1.975328    0.272589
H     -5.571565   -0.319991    2.044209
H     -4.652979   -2.600848   -1.449297
H     -3.287843    0.635812    1.998498
H     -2.382509   -1.612117   -1.444620
H      1.679758   -1.263883    0.366103
H      1.750244   -1.373763   -1.419153
H      0.953596    1.115768    0.225115
