28

C      2.529627   -2.280628    0.736580
C      2.809202    0.419994   -0.421738
C      1.622358   -1.588282    0.073230
C     -3.298675   -0.272963    1.336487
C     -2.166537   -0.804511    1.917825
C     -0.612045    1.817990   -2.076565
C     -3.198206    0.513824    0.194554
C     -1.853584    1.564981   -1.520345
C     -0.945415   -0.556877    1.370315
C      0.513692    1.282529   -1.488412
C      1.575569   -0.090950    0.296279
C     -1.955226    0.778855   -0.381497
C      0.392773    0.501714   -0.354164
C     -0.850152    0.228719    0.230893
H      3.218650   -1.817876    1.414148
H      2.574155   -3.345322    0.588204
H      2.813843    0.032717   -1.476746
H      2.882082    1.502475   -0.469478
H      3.743229    0.018743    0.052946
H      0.928795   -2.054978   -0.609279
H     -4.278319   -0.476989    1.783741
H     -2.203892   -1.421757    2.806796
H     -0.573012    2.434026   -2.962614
H     -4.056623    0.944338   -0.285607
H     -2.742270    1.976867   -1.969195
H     -0.008808   -0.944578    1.780411
H      1.473885    1.490790   -1.936988
H      1.664904    0.147149    1.370216
