29

C     -0.922632    1.881831    2.292615
C      0.191537    1.463385    1.712335
C      3.533497   -1.623932   -0.432948
C      3.175706   -0.688003   -1.380444
C      2.823298   -1.698363    0.748178
C      2.110225    0.151200   -1.115245
C      1.765840   -0.859347    1.001656
C     -1.440137    0.691779   -1.468481
C     -1.859629   -0.329994    0.604966
C     -2.616556    0.196731   -1.992782
C     -3.041854   -0.837301    0.104330
C      1.391020    0.088672    0.060489
C     -1.026581    0.450605   -0.173813
C     -3.421657   -0.575802   -1.191669
C      0.243750    1.017018    0.306794
Cl    -4.915314   -1.199257   -1.870945
H     -0.987047    2.210501    3.309584
H     -1.823336    1.886131    1.682794
H      1.089877    1.455784    2.309590
H      4.378341   -2.301652   -0.623773
H      3.711248   -0.603460   -2.316110
H      3.110570   -2.443472    1.498856
H      1.820867    0.900378   -1.869257
H      1.197973   -0.904905    1.923979
H     -0.796238    1.305332   -2.097711
H     -1.555471   -0.526138    1.607364
H     -2.897720    0.416266   -3.021574
H     -3.704562   -1.449724    0.700982
H      0.464987    1.925739   -0.309759
