37

C     -4.706628    1.621445   -0.439248
C     -0.023829   -1.960383    2.311557
C     -3.660384    0.725091    0.133697
C      0.684999   -1.069100    1.671058
C     -2.583767    0.405156   -0.894072
C     -1.539245   -0.512481   -0.260946
C     -0.455858   -0.859335   -1.228353
C      0.609219   -1.757918   -0.739752
C      1.966206    1.080701   -0.047189
C      3.751135   -0.430717   -0.021846
C      2.826575    2.111724   -0.329442
C      4.628880    0.590067   -0.304507
C      1.426017   -1.320654    0.417622
C      2.378765   -0.222338    0.118127
C      4.172383    1.877459   -0.461799
Cl     5.285674    3.200032   -0.825070
H     -4.251788    2.182153   -1.285260
H     -5.029500    2.318417    0.379754
H     -5.562997    1.020661   -0.771937
H     -0.530341   -1.676261    3.223671
H     -0.152129   -2.989487    1.999358
H     -3.164029    1.162726    1.025654
H     -4.130721   -0.237748    0.434781
H      0.750169   -0.053385    2.073427
H     -3.083513   -0.172563   -1.695611
H     -2.126585    1.334289   -1.247526
H     -1.102612    0.097076    0.561230
H     -2.009808   -1.427099    0.121487
H     -0.975650   -1.414575   -2.073166
H     -0.046238    0.044805   -1.729907
H      1.315574   -2.061750   -1.548418
H      0.102178   -2.731752   -0.454303
H      0.900832    1.293757    0.057381
H      4.106952   -1.447603    0.102997
H      2.457268    3.118482   -0.450873
H      5.680087    0.378991   -0.403119
H      2.092710   -2.217883    0.659434
