29

C     -0.200174    3.070688   -0.276041
C     -0.833415    1.966947   -0.650157
C     -2.913466   -2.475044   -0.301917
C     -3.004500   -1.335488    0.493829
C     -1.940311   -2.567640   -1.265297
C     -2.096440   -0.316799    0.284418
C     -1.028188   -1.555352   -1.482485
C      2.097776   -0.251561   -0.523076
C      1.136425    0.971534    1.234531
C      3.236518   -0.470513    0.253721
C      2.253547    0.763596    2.012518
C     -1.124292   -0.429678   -0.690681
C      1.026757    0.472416   -0.049487
C      3.316933    0.038852    1.528525
C     -0.154144    0.680331   -0.900787
Cl     4.763178   -0.247360    2.496185
H      0.872831    3.071809   -0.135343
H     -0.727414    4.000127   -0.099763
H     -1.907742    2.013764   -0.778462
H     -3.617482   -3.283189   -0.151018
H     -3.757843   -1.227847    1.262038
H     -1.853832   -3.455269   -1.899598
H     -2.175248    0.569868    0.910993
H     -0.260575   -1.659276   -2.261673
H      2.090906   -0.679488   -1.525532
H      0.299967    1.546455    1.626571
H      4.075930   -1.042524   -0.128126
H      2.318506    1.160845    3.009276
H      0.105794    0.669796   -1.993160
