31

C      4.500697   -0.443984    0.852531
C     -0.641218    2.449737   -1.104641
C      3.188564   -0.899588    0.259662
C     -0.023636    1.839063   -0.122397
C      2.073287    0.059632    0.644592
C      0.784175   -0.438763    0.028571
C     -1.868817   -0.407166   -1.279966
C     -2.666743   -0.138577    0.931837
C     -3.111480   -0.897490   -1.669994
C     -3.904855   -0.628223    0.538592
C     -0.336882    0.482305    0.396385
C     -1.648284   -0.028235    0.021086
C     -4.135203   -1.008345   -0.754384
Cl    -5.678316   -1.635149   -1.314443
H      4.315853    0.378200    1.575448
H      5.149443   -0.047569    0.037505
H      5.002357   -1.287370    1.363060
H     -0.334621    3.432183   -1.401776
H     -1.454878    1.976444   -1.616701
H      3.257121   -0.895087   -0.849206
H      2.889663   -1.912524    0.600501
H      0.791047    2.359800    0.368798
H      2.026450    0.059245    1.751297
H      2.333409    1.068810    0.317802
H      0.588941   -1.493535    0.274049
H      0.926692   -0.424023   -1.092071
H     -1.114509   -0.352385   -2.064459
H     -2.561320    0.143655    1.980603
H     -3.274390   -1.190086   -2.684673
H     -4.737595   -0.727628    1.244576
H     -0.334952    0.606651    1.522866
