32

C     -3.498720   -1.977911   -0.810442
C     -3.402114    1.802479    0.377154
C     -3.410837   -0.865676   -0.124525
C     -2.165036    1.152556   -0.282798
C      5.098130   -0.104278    0.686958
C      4.222245   -1.145133    0.902015
C      4.626804    1.070164    0.161651
C      2.868963   -0.992005    0.583366
C      3.286657    1.214631   -0.151249
C     -0.995420   -1.102257   -0.250617
C      0.923632    0.299877   -0.271339
C     -2.077344   -0.241821    0.284535
C      2.405070    0.186076    0.058153
O      0.273144   -0.831465    0.009158
H     -4.494186   -2.379790   -1.077204
H     -2.683685   -2.589160   -1.164419
H     -4.286794    1.644952   -0.248376
H     -3.556440    1.389066    1.390514
H     -3.262356    2.891574    0.485337
H     -4.300581   -0.350502    0.175561
H     -1.365052    1.830488   -0.112835
H     -2.374631    1.093685   -1.385099
H      6.158029   -0.210639    0.931516
H      4.589514   -2.079300    1.318373
H      5.298147    1.891286   -0.011807
H      2.215361   -1.823597    0.764133
H      2.891051    2.128194   -0.565483
H     -1.179210   -1.321103   -1.364196
H     -1.207222   -2.139650    0.185952
H      0.595542    1.063998    0.521180
H      0.870446    0.728860   -1.266251
H     -2.063107   -0.233601    1.371605
