37

C     -3.944765    1.493260   -0.168258
C      2.184665   -2.623990   -0.199767
C     -2.600547    0.704820   -0.178083
C      1.609179   -1.713877   -0.942953
C     -2.912630   -0.720672   -0.045304
C     -1.917105   -1.770196   -0.075649
C      3.380752    2.871782    0.134964
C     -0.816119   -1.904249    0.874417
C      3.636934    1.676038    0.770677
C      2.281277    2.935257   -0.693004
C      0.184814   -0.821800    0.914616
C      2.861336    0.554483    0.623920
C      1.487351    1.804844   -0.849849
C      0.875336   -0.571108   -0.406686
C      1.752558    0.614383   -0.209516
H     -4.589128    1.002205    0.563180
H     -3.760147    2.549136    0.087450
H     -4.355677    1.454830   -1.186075
H      2.735219   -3.481121   -0.619053
H      2.152311   -2.586164    0.873889
H     -2.062383    1.050671   -1.046210
H     -2.095427    1.129119    0.733769
H      1.684141   -1.818290   -2.025375
H     -3.542557   -0.843512    0.906967
H     -3.704421   -0.990634   -0.834460
H     -2.505318   -2.766714   -0.055599
H     -1.478549   -1.826800   -1.127107
H      4.009176    3.756599    0.262855
H     -0.319809   -2.934268    0.806646
H     -1.275328   -1.959532    1.918531
H      4.499337    1.612391    1.425308
H      2.020554    3.845012   -1.224800
H      1.007845   -1.102872    1.657856
H     -0.238048    0.117890    1.253026
H      3.066565   -0.382357    1.125340
H      0.626676    1.911653   -1.519386
H      0.061930   -0.266214   -1.114088
