65

C      6.396423   -1.338234    2.529508
C     -2.927751    2.379474   -2.213134
C     -5.855911   -1.064835    1.088141
C     -4.707223    0.952684    1.989193
C      5.707688    1.690154   -0.663786
C      2.650590   -1.395089   -0.786247
C     -1.544715   -0.994917    1.824662
C     -1.788768   -1.899727   -1.830708
C      6.551035   -0.136017    1.611176
C     -3.599376    1.130713   -2.715231
C     -4.526894   -0.480537    1.596977
C      4.837668    0.543192   -0.177917
C      2.417394   -0.155585    0.085449
C     -2.224171   -0.070367    0.824552
C     -1.978354   -0.416984   -1.660713
C      5.163997    0.308554    1.279292
C      3.418405    0.908193   -0.320249
C     -3.567388   -0.620812    0.435858
C     -1.368493    0.123732   -0.398207
C      1.057049    0.407718   -0.194222
C     -3.409906   -0.071609   -1.806681
O      4.307939    0.485431    2.093855
O      3.091827    2.078230    0.346099
O      0.884822    1.595780   -0.483038
O     -4.042269   -1.136658   -2.501627
O     -0.081699   -0.407092   -0.138943
O     -4.105249    0.074787   -0.626601
H      5.330757   -1.512528    2.803567
H      7.064879   -1.256089    3.379957
H      6.646349   -2.235260    1.881756
H     -3.384536    3.264695   -2.762734
H     -1.868561    2.402110   -2.535893
H     -3.101439    2.579352   -1.155439
H     -6.424176   -0.312577    0.519110
H     -6.452157   -1.495894    1.913692
H     -5.642602   -1.892604    0.375013
H     -4.258929    1.681393    1.298144
H     -5.773278    1.210100    2.198574
H     -4.197416    1.089576    2.975333
H      6.731513    1.334311   -0.920451
H      5.238751    2.083548   -1.602056
H      5.733924    2.528711    0.054401
H      2.866383   -1.038488   -1.807505
H      1.758585   -2.035300   -0.758722
H      3.486491   -1.968884   -0.332478
H     -1.503789   -2.008315    1.438808
H     -1.999186   -0.882239    2.812574
H     -0.490650   -0.607668    1.943628
H     -2.777181   -2.432395   -1.929227
H     -1.178964   -2.317247   -1.021056
H     -1.252590   -2.164674   -2.791740
H      7.158228   -0.339887    0.722076
H      7.037259    0.715718    2.158968
H     -3.185807    0.882023   -3.737508
H     -4.668376    1.353105   -2.900404
H     -4.224060   -1.105449    2.465721
H      5.135240   -0.363141   -0.761475
H      2.527575   -0.483631    1.122269
H     -2.417866    0.883579    1.368629
H     -1.411319    0.077233   -2.506427
H      3.171014    1.123778   -1.404120
H     -3.497189   -1.711058    0.247273
H     -1.261055    1.222666   -0.573634
H      3.872667    2.441718    0.806482
H     -3.545160   -1.200471   -3.367268
