37

C      4.845599    0.177197    0.040141
C     -2.386824   -0.615301    3.501373
C      4.149721    0.447606   -1.283613
C     -2.022678    0.040325    2.434100
C      2.854157   -0.334502   -1.355608
C      1.995355    0.122944   -0.209265
C     -3.806810    0.678328   -2.045713
C      0.657309   -0.589745   -0.167282
C     -3.678542   -0.675281   -1.766408
C     -3.168214    1.608157   -1.268612
C     -0.067794   -0.018990    1.026309
C     -2.907250   -1.125314   -0.702001
C     -2.407067    1.136277   -0.215981
C     -1.436726   -0.625787    1.218995
C     -2.271572   -0.195204    0.071183
H      4.392284   -0.673370    0.584512
H      5.909678   -0.109669   -0.181322
H      4.823974    1.090574    0.679973
H     -2.801727   -0.073159    4.341212
H     -2.274285   -1.698771    3.546832
H      4.817077    0.256454   -2.134599
H      3.884545    1.536821   -1.329078
H     -2.128264    1.115390    2.374341
H      2.365513   -0.044397   -2.308035
H      3.044812   -1.418280   -1.311762
H      2.490569    0.043519    0.762161
H      1.762225    1.204518   -0.367181
H     -4.411597    1.025855   -2.879922
H      0.121514   -0.409935   -1.118293
H      0.789918   -1.695432   -0.077169
H     -4.192627   -1.384637   -2.395132
H     -3.253813    2.652318   -1.466267
H     -0.116428    1.078929    0.889796
H      0.592898   -0.192988    1.912771
H     -2.844048   -2.195665   -0.532112
H     -1.912152    1.901669    0.382854
H     -1.408733   -1.707425    1.348804
