31

C      4.335516   -0.637348    0.740880
C     -0.143974   -2.805097   -0.415608
C      3.093228    0.217049    0.768487
C     -0.676235   -1.686689    0.040003
C      1.944790   -0.476976    0.065902
C      0.697590    0.376222    0.091354
C     -2.281901    0.968394   -1.604184
C     -2.095199    0.708411    0.768422
C     -3.409414    1.738537   -1.434120
C     -3.233458    1.485746    0.942811
C     -0.403049   -0.384436   -0.628973
C     -1.639731    0.464060   -0.510258
C     -3.886056    1.997928   -0.162744
Br    -5.463519    3.076220    0.060970
H      5.249369   -0.034743    0.525527
H      4.217940   -1.471760    0.010910
H      4.513403   -1.127884    1.738215
H     -0.348078   -3.729007    0.072819
H      0.488985   -2.771247   -1.273721
H      3.314080    1.188747    0.278337
H      2.753550    0.427850    1.808361
H     -1.315017   -1.738647    0.910097
H      2.226241   -0.626112   -1.000651
H      1.761774   -1.452629    0.545635
H      0.946466    1.311502   -0.450444
H      0.424088    0.651145    1.107331
H     -1.861951    0.731900   -2.580208
H     -1.570187    0.297565    1.635898
H     -3.910816    2.132934   -2.299351
H     -3.585310    1.673507    1.948694
H     -0.143126   -0.505143   -1.700393
