32

C     -4.326999   -2.052317    1.407387
C     -3.742086   -2.312786    0.186201
C     -3.756478   -1.060559    2.176846
C     -2.623197   -1.611132   -0.261474
C     -2.641556   -0.360190    1.732646
C      2.789355   -0.067379    0.184372
C      3.717485    1.703792   -1.151453
C     -2.057162   -0.620982    0.511673
C      3.834634    0.698408   -0.225606
C      1.525775    0.152676   -0.340413
C      2.444863    1.946524   -1.698412
C      1.388054    1.173993   -1.285045
C      0.389215   -0.696205    0.098857
C     -0.863671    0.142293    0.057493
C      0.027390    1.369347   -1.790753
O      5.085554    0.422414    0.345713
O      2.340026    2.936919   -2.607864
O      0.641599   -1.184156    1.385245
O     -0.191606    2.251198   -2.634382
O     -1.003138    0.543142   -1.301840
H     -5.198061   -2.610110    1.737767
H     -4.166315   -3.085010   -0.440664
H     -4.221228   -0.861208    3.135162
H     -2.161685   -1.816798   -1.225230
H     -2.215460    0.418575    2.367227
H      2.876852   -0.872292    0.923965
H      4.565242    2.293674   -1.456450
H      0.295591   -1.601172   -0.568862
H     -0.687535    1.007212    0.729012
H      5.350044    0.910680    1.200586
H      1.574831    3.256342   -3.092114
H      1.009666   -0.414894    1.900413
