32

C     -4.958390    0.808879    0.165090
C     -4.120690    0.601511    1.238328
C     -4.443592    0.648872   -1.104632
C     -2.792943    0.240803    1.041983
C     -3.116169    0.288496   -1.286449
C      2.441090   -0.668830    1.231994
C      4.187615   -0.212214   -0.318091
C     -2.263666    0.077018   -0.220728
C      3.780332   -0.650620    0.922322
C      1.488410   -0.249099    0.306525
C      3.268397    0.207610   -1.250707
C      1.904473    0.184088   -0.922537
C      0.049775   -0.261756    0.641020
C     -0.884535   -0.298686   -0.487650
C      0.907505    0.614337   -1.889660
O      4.715993   -1.082290    1.882718
O      3.618179    0.659280   -2.515037
O     -0.149752   -1.445024    1.396594
O      1.323677    1.007395   -3.009800
O     -0.420922    0.572047   -1.540236
H     -5.993416    1.090609    0.350009
H     -4.496310    0.719971    2.266023
H     -5.125501    0.818577   -1.925305
H     -2.124545    0.074791    1.865338
H     -2.776405    0.179532   -2.323256
H      2.074156   -1.005394    2.194868
H      5.243771   -0.191209   -0.579597
H     -0.103549    0.554040    1.372667
H     -0.876364   -1.316582   -0.942557
H      5.121865   -0.412199    2.549700
H      4.602181    0.685317   -2.775816
H     -0.080666   -2.239270    0.779056
