39

C      5.117244   -0.164871   -0.273926
C     -1.989897   -1.218283   -1.645781
C     -3.721171    0.533863   -1.592841
C     -2.619422    0.052119    1.671819
C     -1.124610    0.038973    1.585607
C      3.160604    0.095558    1.166690
C      2.729353    0.191010   -1.226785
C      1.735309    0.293474    1.512929
C      1.373852   -0.358333   -0.865575
C     -3.121722   -0.664367    0.437118
C     -1.496464    0.954076   -0.592337
C      3.621856    0.045058   -0.053533
C      0.889054    0.494788    0.325753
C     -0.555834    0.476364    0.485433
C     -2.569051   -0.071135   -0.809972
H      5.308308   -0.502232   -1.306045
H      5.602913    0.810892   -0.077189
H      5.440330   -0.931825    0.424160
H     -2.751180   -1.971344   -1.880249
H     -1.555770   -0.838273   -2.596664
H     -1.183569   -1.707172   -1.089221
H     -4.156637    1.376611   -1.028416
H     -4.504600   -0.255062   -1.653303
H     -3.372755    0.809149   -2.590669
H     -3.021436    1.080763    1.730049
H     -2.940596   -0.473161    2.585349
H     -0.490938   -0.309420    2.379716
H      3.921670   -0.022133    1.972033
H      2.627285    1.295539   -1.411425
H      3.147358   -0.279172   -2.139288
H      1.466023   -0.561171    2.168513
H      1.721107    1.186317    2.208620
H      0.703616   -0.147813   -1.730959
H      1.441722   -1.413771   -0.602478
H     -4.246800   -0.636362    0.477137
H     -2.818899   -1.741640    0.568752
H     -0.931433    1.072034   -1.533889
H     -1.957578    1.913704   -0.260608
H      1.122756    1.547248   -0.045894
