39

C      3.793502   -0.052850   -1.733370
C     -1.739516   -0.513261   -1.650546
C     -3.691413   -1.056260   -0.293026
C     -1.637909    2.088812   -0.408074
C     -0.420562    1.521111    0.227657
C      2.716998    0.956701    0.220194
C      2.677555   -1.437023    0.146949
C      1.990150    0.837238    1.488947
C      1.329055   -1.474428    0.783951
C     -2.847545    1.232568   -0.257458
C     -1.587176   -0.514005    0.844661
C      3.056154   -0.146866   -0.443932
C      0.904140   -0.201076    1.449997
C     -0.342632    0.340975    0.812373
C     -2.433552   -0.221891   -0.351615
H      3.637196   -1.004552   -2.302256
H      3.506070    0.838348   -2.327037
H      4.878517    0.004736   -1.523274
H     -1.079365    0.326707   -1.960016
H     -2.486374   -0.636482   -2.469919
H     -1.179645   -1.454576   -1.553865
H     -4.233314   -0.901175    0.673161
H     -4.359634   -0.814454   -1.161625
H     -3.440031   -2.148461   -0.421408
H     -1.379114    2.287944   -1.475888
H     -1.826355    3.068722    0.106100
H      0.460656    2.149883    0.189818
H      2.977436    1.912247   -0.177578
H      3.484976   -1.747355    0.858836
H      2.710576   -2.204778   -0.664475
H      2.764802    0.572809    2.269478
H      1.596798    1.815497    1.815373
H      1.351752   -2.308516    1.533155
H      0.601823   -1.818795    0.012781
H     -3.556768    1.499726   -1.076015
H     -3.351978    1.388233    0.705033
H     -1.337902   -1.587577    0.917989
H     -2.149004   -0.167988    1.746297
H      0.641633   -0.429889    2.502670
