46

C     -3.028099   -2.249754    1.715722
C     -3.523672   -1.166610   -0.313066
C      5.226096   -0.420836    0.989918
C     -1.622109    2.983841    0.133220
C     -0.448871    3.196294   -0.747323
C      1.681240   -2.184934   -1.873640
C     -1.852707    1.641505    0.672771
C      0.764604   -1.207861   -1.536652
C      2.963289   -2.203512   -1.330025
C      0.240001    1.988072   -1.242792
C      2.407254   -0.266353   -0.111778
C     -1.412591   -0.770330    0.757126
C      1.126616   -0.240236   -0.649380
C     -1.202756    0.487355   -0.058215
C      3.345193   -1.220141   -0.422579
C      0.243552    0.868959   -0.219370
N     -2.825639   -1.052739    0.928370
O      0.724851    1.400235    0.984342
O      4.610441   -1.270841    0.087145
Cl     0.685464    0.000000    0.000000
H     -2.109903   -2.775048    1.975876
H     -3.766124   -2.928152    1.196751
H     -3.562202   -1.941381    2.647361
H     -2.830806   -1.438157   -1.154428
H     -4.250729   -2.001523   -0.237064
H     -4.109932   -0.252058   -0.564520
H      4.641492    0.487911    1.203587
H      6.270749   -0.154291    0.656447
H      5.344279   -0.986290    1.961077
H     -1.530828    3.705002    0.999871
H     -2.560641    3.326152   -0.380344
H      0.331719    3.856121   -0.253995
H     -0.755857    3.797714   -1.647697
H      1.416821   -2.964100   -2.572569
H     -1.484892    1.563178    1.736144
H     -2.961976    1.440402    0.787137
H     -0.239880   -1.199749   -1.976739
H      3.658169   -2.980706   -1.612077
H      1.283045    2.231765   -1.550724
H     -0.280710    1.600026   -2.135594
H      2.724440    0.505798    0.606122
H     -0.938464   -0.658503    1.746482
H     -0.961503   -1.625472    0.233348
H     -1.707283    0.402651   -1.052717
H      0.964321    0.676595    1.624471
H     -0.685464    0.000000    0.000000
