69

C      1.462488   -2.557381   -1.198131
C      2.702649    0.578061   -1.992659
C      3.571514    2.604900   -0.864222
C      0.270819    1.828600    2.193359
C     -1.845613    4.259190   -1.599369
C     -1.490034    3.032847   -2.153423
C     -2.074877    4.335892   -0.242481
C     -1.359279    1.881915   -1.376415
C     -1.942535    3.205391    0.497810
C      3.355710   -2.000243    0.136887
C      3.935561   -0.825585    0.766897
C     -0.217932   -0.470925    2.576508
C      1.079677   -1.239134    2.379768
C     -5.417553   -1.120175   -1.227901
C     -1.718694   -4.113446   -0.218383
C      1.923416   -2.279779    0.236568
C     -1.585834    1.958061   -0.029822
C     -4.079052   -1.256581   -0.699918
C     -2.226997   -2.748564   -0.230802
C      3.440078    0.525683    0.554473
C     -2.047140   -0.421812    0.307606
C     -1.473674    0.844059    0.872083
C      2.083575    0.918987    0.527830
C     -3.521902   -2.550023   -0.727224
C     -3.342172   -0.219618   -0.187125
C     -1.518976   -1.685635    0.270013
C      0.909911    0.045453    0.485351
C      3.003711    1.167213   -0.683688
C     -0.137852    0.566189    1.453355
C      0.982756   -1.362488    0.850263
O     -6.036503   -2.102525   -1.680890
O     -0.600516   -4.470329    0.204834
O     -4.279669   -3.577562   -1.246117
O     -3.879562    1.050219   -0.154305
O     -0.280520   -2.004455    0.703413
H      1.373126   -3.647034   -1.407420
H      0.492155   -2.066508   -1.397542
H      2.185157   -2.189545   -1.955485
H      2.755130    1.339999   -2.801786
H      3.512601   -0.149903   -2.300060
H      1.691539    0.149087   -2.130312
H      3.348701    3.130387    0.091576
H      3.079616    3.114799   -1.693443
H      4.678060    2.563720   -0.937711
H     -0.557895    1.924989    2.973456
H      0.175128    2.749670    1.624174
H      1.165528    1.711751    2.819615
H     -1.939692    5.140498   -2.232491
H     -1.305499    2.949662   -3.215790
H     -2.349306    5.305152    0.150959
H     -1.097578    0.981645   -1.906693
H     -2.135020    3.292416    1.570520
H      3.915483   -2.884827    0.598403
H      3.777515   -2.066154   -0.917908
H      4.042161   -1.044420    1.875050
H      5.037270   -0.826589    0.462771
H     -0.223789    0.007096    3.590231
H     -1.114277   -1.086432    2.547980
H      1.056356   -2.227108    2.856216
H      1.866701   -0.570764    2.710604
H     -5.909456   -0.174971   -1.243138
H     -2.338246   -4.902796   -0.600475
H      1.755568   -3.275941    0.764961
H      4.109618    1.196215    1.220411
H     -2.144172    1.005065    1.800227
H      1.829896    1.948873    0.946146
H      0.471834    0.102217   -0.526312
H     -4.054255   -4.524879   -1.344022
H     -4.794937    1.228225   -0.496854
