30

C     -2.517681    1.082547   -0.855318
C     -3.049920   -1.237227   -0.463576
C      3.215556    0.162664    0.409959
C     -0.199347   -1.344698    0.347352
C      1.166401   -1.058322    0.924763
C     -0.248856    1.090161    0.880753
C     -2.205792   -0.020033   -0.242002
C     -1.052439   -0.122832    0.669832
C      0.975035    1.217713    0.024103
C      1.799667   -0.042168   -0.025556
O      0.652085    1.674355   -1.251834
O      1.760681   -0.516994   -1.337400
H     -2.016086    2.033600   -0.801973
H     -3.404469    1.076597   -1.523449
H     -2.834147   -2.039070    0.248304
H     -2.910457   -1.598625   -1.510872
H     -4.142065   -0.998687   -0.369580
H      3.891943   -0.576686   -0.073226
H      3.294227    0.012751    1.518893
H      3.515505    1.207190    0.167146
H     -0.145387   -1.373592   -0.778173
H     -0.651983   -2.271969    0.729561
H      1.792856   -1.972754    0.989686
H      1.102101   -0.565452    1.911855
H      0.102902    1.183570    1.964487
H     -0.864285    1.992680    0.745820
H     -1.507652   -0.385684    1.679764
H      1.619666    2.001703    0.486002
H      0.427646    2.642512   -1.186916
H      2.434296   -1.253250   -1.463368
