55

C     -4.602400   -1.916036    1.997615
C      5.740699    3.198120   -0.117647
C      2.245219   -3.007735   -1.370869
C      6.089348   -0.788269   -2.801339
C     -4.183291   -0.305625   -0.661064
C     -3.658821    0.801914    0.210202
C      3.395571    1.707889   -0.053955
C      2.214287   -0.293971   -0.445267
C      0.891862    2.898891    0.955651
C     -2.471894   -0.764824    1.715744
C     -3.354268   -1.843580    1.144110
C      2.210822    1.022932    0.001299
C     -3.676696   -1.655656   -0.298237
C      0.981040    1.623286    0.502437
C      4.582464    1.143576   -0.532531
C      3.376414   -0.865020   -0.920120
C      4.562836   -0.163759   -0.970264
C     -1.381332    2.585797    1.400394
C     -1.327967    1.278553    0.945151
C     -4.703255   -2.660837   -0.680562
N     -2.566728    3.152512    1.879492
N     -0.277687    3.371514    1.398883
N     -0.140792    0.843752    0.510444
N     -2.485563    0.455037    0.946859
O     -4.487457   -3.593244   -1.494370
O     -5.967027   -2.571678   -0.114042
O      5.768057    1.868220   -0.574507
O      3.386207   -2.179343   -1.367273
O      5.701109   -0.792011   -1.458681
H     -4.292412   -1.735785    3.067328
H     -4.975269   -2.950266    1.965509
H     -5.354951   -1.160580    1.696600
H      6.787084    3.563534   -0.061706
H      5.299634    3.311202    0.880605
H      5.211323    3.890249   -0.802734
H      1.610909   -2.861917   -0.453754
H      1.657166   -2.874124   -2.281198
H      2.543576   -4.091404   -1.319636
H      6.024273    0.201812   -3.282658
H      7.183688   -1.059693   -2.820682
H      5.553476   -1.529653   -3.415577
H     -3.904767   -0.089409   -1.713737
H     -5.303414   -0.333259   -0.653502
H     -4.471888    1.016904    0.963622
H     -3.438532    1.705122   -0.394650
H      3.434535    2.726326    0.281334
H      1.279893   -0.851315   -0.407606
H      1.744204    3.550128    0.969498
H     -1.413586   -1.156026    1.656014
H     -2.656493   -0.602217    2.798609
H     -2.852678   -2.841446    1.244815
H     -2.782751   -1.875997   -0.918770
H     -3.163412    3.725668    1.253303
H     -2.879334    3.018366    2.860127
H     -6.701035   -3.246625   -0.247901
