85

C     -5.034287    3.584450   -3.821396
C     -6.636650    2.569524   -2.277561
C      9.040285    3.849022   -0.289739
C      8.419916    4.244553   -1.479933
C      8.466137    2.901246    0.491041
C      2.808394   -4.058214    0.718557
C     -2.779677   -4.389395    4.220004
C     -4.001594   -3.852050    4.540671
C      1.607201   -4.726998    0.557809
C      7.216393    3.633169   -1.811368
C      7.257242    2.299744    0.139014
C      2.771730   -2.733479    1.025124
C     -2.065227   -3.939509    3.114567
C     -4.529790   -2.857635    3.764928
C      0.395399   -4.119466    0.693338
C     -4.635683    1.289446   -3.128004
C      5.328975    2.062281   -1.446251
C      2.189997    0.289488    1.783905
C     -2.494550   -2.836887   -0.175036
C     -0.151335   -0.707862    1.470420
C     -5.190810    2.589198   -2.654501
C      6.626347    2.678263   -1.036484
C      1.244745   -0.779715    1.466626
C      1.532597   -2.103490    1.164503
C     -2.623222   -2.925718    2.337876
C     -3.842003   -2.380359    2.646661
C      4.209021    2.848655   -0.805060
C      3.030265    0.826247    0.672743
C     -4.700574    0.161109   -2.161621
C      0.329280   -2.771549    1.003402
C     -2.648300   -1.645050   -1.115461
C      4.428917    2.766735    0.666555
C      2.326988    1.395947   -0.472136
C     -3.501268   -1.897847   -2.271794
C     -3.972741    0.375522   -0.884689
C     -2.939202   -0.947931    1.126143
C     -2.111710   -2.234362    1.126300
N      2.888820    2.343935   -1.158086
N      3.887970    1.843834    1.318732
N     -4.381009   -1.110711   -2.711523
N     -4.222685   -1.357358    1.731552
N     -0.701777   -1.898583    1.195194
N     -3.227986   -0.667748   -0.262510
O      5.235951    3.741173    1.238920
O      1.084976    0.953067   -0.842263
O     -3.302290   -3.131083   -2.932126
O     -4.013739    1.503539   -0.337426
H     -5.454558    4.564697   -3.587681
H     -5.548036    3.093311   -4.670250
H     -3.955950    3.590124   -4.087269
H     -7.328305    2.439668   -3.119524
H     -6.871374    1.820597   -1.491667
H     -6.840103    3.576891   -1.810427
H      9.979038    4.322434   -0.025676
H      8.830836    4.991189   -2.137501
H      8.975409    2.607626    1.425351
H      3.775983   -4.536698    0.613577
H     -2.321933   -5.176997    4.803713
H     -4.523797   -4.230606    5.418154
H      1.678892   -5.792687    0.309797
H      6.764387    3.967770   -2.750724
H      6.809195    1.552799    0.764075
H      3.665127   -2.126407    1.178078
H     -1.094814   -4.385209    2.896474
H     -5.499211   -2.415530    4.004302
H     -0.478683   -4.720214    0.582300
H     -5.149914    1.028575   -4.088589
H     -3.560408    1.479102   -3.397698
H      5.363759    1.024099   -1.085419
H      5.224928    2.067645   -2.561488
H      1.607458    1.143669    2.222981
H      2.855686   -0.008997    2.666024
H     -3.412558   -3.452002   -0.135080
H     -1.738979   -3.466703   -0.676453
H     -0.664735    0.202512    1.673597
H     -4.626401    3.050213   -1.818619
H      4.250914    3.910638   -1.107182
H      3.737512    0.039987    0.270162
H     -5.794855    0.064243   -1.821294
H     -1.632696   -1.309476   -1.422053
H     -2.508101   -0.131410    1.688951
H     -5.151801   -0.973774    1.521709
H      5.127351    3.896949    2.249106
H      0.726935    0.997173   -1.796727
H     -3.835628   -3.382345   -3.774846
