58

C     -5.774121   -0.979155   -0.977958
C     -3.163951   -0.666089   -2.586985
C      5.831010   -2.238521    2.826716
C      2.737791    3.367636   -0.449419
C      7.054856    1.627042    0.273810
C     -3.239050    1.609423    0.241352
C     -2.007356    1.008530   -0.397460
C      3.596905   -1.046482    1.645607
C      2.613950    0.793671    0.580628
C      0.987929   -2.460370    1.427981
C     -4.484105   -0.383947   -0.451074
C     -3.251797   -0.971679   -1.091175
C      2.484709   -0.486298    1.072229
C     -4.531661    1.091782   -0.330877
C      1.193916   -1.181479    0.963366
C      4.805137   -0.367773    1.734005
C      3.792694    1.501599    0.647830
C      4.901909    0.911173    1.232653
C     -1.280461   -2.457107    0.729754
C     -1.087867   -1.186476    0.263127
C     -5.004255    1.847510   -1.482159
N     -2.517007   -3.145186    0.667763
N     -0.201636   -3.068270    1.313519
N      0.146345   -0.582389    0.393552
N     -2.115353   -0.468232   -0.388390
O     -6.180898    2.283500   -1.520199
O     -4.214018    2.127891   -2.578738
O      5.935058   -0.924489    2.311507
O      3.868726    2.784602    0.138589
O      6.073841    1.647328    1.286002
H     -5.833077   -1.073782   -2.057690
H     -6.596258   -0.308519   -0.596135
H     -5.963358   -1.966834   -0.497576
H     -4.156849   -0.542019   -3.025275
H     -2.432108    0.105563   -2.834159
H     -2.747629   -1.603499   -3.080310
H      5.578232   -2.945881    1.988892
H      6.765831   -2.539835    3.338517
H      4.982437   -2.273936    3.533606
H      1.971156    3.538565    0.325421
H      2.261171    2.705881   -1.209734
H      3.055135    4.274561   -0.986412
H      8.078585    1.477570    0.676111
H      7.069364    2.638924   -0.198247
H      6.832030    0.887241   -0.531391
H     -3.201291    2.700253    0.044562
H     -3.244332    1.468743    1.342948
H     -1.156748    1.277390    0.244163
H     -1.914522    1.409290   -1.404994
H      3.581137   -2.043965    2.055181
H      1.735967    1.251247    0.122600
H      1.832937   -2.978425    1.901306
H     -4.436097   -0.768219    0.626463
H     -3.397528   -2.071606   -1.053305
H     -5.303029    1.291146    0.492085
H     -3.342396   -2.821095    1.196206
H     -2.591393   -3.993576    0.083134
H     -4.398603    2.917076   -3.214245
