52

C      2.527201   -2.677511    0.888835
C     -2.000024   -0.762718    1.423970
C     -1.559093   -0.959636    0.019459
C     -3.018717    0.356455    1.535909
C     -0.854051    0.221521   -0.531890
C     -5.338717   -0.566467    1.381169
C     -4.418530    0.522404   -0.483592
C      2.272901    2.265491    0.004858
C      4.046140    0.701449    0.919500
C     -6.485382   -0.778611    0.665753
C     -5.597455    0.302707   -1.215161
C      1.007233    1.719917   -0.472819
C      5.194737   -0.048139    0.779721
C      4.195457    1.401095   -1.309695
C      1.682259   -1.456365    1.119906
C     -4.263443    0.103564    0.801074
C      3.495253    1.449694   -0.091785
C     -6.652755   -0.358541   -0.636369
C      0.498365    0.496932    0.204258
C      5.869360   -0.084646   -0.422376
C      5.341563    0.655922   -1.456904
O      1.345691   -1.196075    2.290429
O     -7.837700   -0.597918   -1.322401
O      7.033210   -0.838357   -0.580227
O      6.009751    0.634445   -2.688211
O      1.285856   -0.645549    0.093606
H      1.889519   -3.581703    0.847258
H      3.127863   -2.527888   -0.016602
H      3.215109   -2.806980    1.741126
H     -2.448217   -1.671970    1.879641
H     -1.172339   -0.476068    2.090543
H     -0.849625   -1.832888   -0.050765
H     -2.447037   -1.212819   -0.625173
H     -3.220829    0.496090    2.636560
H     -2.597698    1.315757    1.194371
H     -0.625236    0.078081   -1.606988
H     -1.374343    1.191898   -0.433474
H     -5.197411   -0.892277    2.403924
H     -3.623818    1.051363   -0.990346
H      2.444442    3.282689   -0.499228
H      2.121439    2.609795    1.089032
H      3.518229    0.725157    1.873688
H     -7.303090   -1.306040    1.154408
H     -5.696488    0.646568   -2.238669
H      0.959834    1.616695   -1.597748
H      0.199312    2.511867   -0.293058
H      5.598312   -0.631041    1.616938
H      3.775816    1.989758   -2.131816
H      0.233917    0.689267    1.237301
H     -8.547332    0.144689   -1.227100
H      7.392532   -1.370352    0.201273
H      6.848029    0.099288   -2.823240
