39

C     -2.997768    2.003689   -0.698015
C      6.728734    0.238141   -0.346778
C      5.795963    1.148423   -0.752575
C      6.353973   -0.909301    0.327957
C      1.657985    0.250902    0.179933
C      0.286375   -0.161396    0.552591
C      4.455839    0.891893   -0.469485
C      5.026845   -1.135259    0.592755
C      2.660751   -0.527522    0.505345
C     -0.750054    0.586060    0.247872
C     -4.443817   -1.333551    0.403232
C     -3.095842   -1.978541    0.172177
C     -3.046343    0.504495   -0.506639
C      4.042195   -0.234842    0.197880
C     -2.103460    0.158005    0.627341
C     -4.457857    0.053024   -0.215128
N     -2.115752   -1.245688    0.940799
O     -5.081554    0.893385    0.701472
H     -3.931317    2.394104   -1.170222
H     -2.762656    2.533686    0.244757
H     -2.143924    2.224788   -1.398510
H      7.773056    0.442147   -0.569650
H      6.006920    2.055455   -1.276958
H      7.083187   -1.642134    0.656937
H      1.819820    1.177796   -0.350272
H      0.133257   -1.082600    1.078739
H      3.700012    1.607574   -0.786162
H      4.730716   -2.036402    1.122847
H      2.423249   -1.458166    1.045589
H     -0.593095    1.511924   -0.281236
H     -4.601434   -1.290464    1.497575
H     -5.251158   -1.983670   -0.023088
H     -3.113524   -3.016450    0.558661
H     -2.857981   -1.909573   -0.891709
H     -2.703205    0.041696   -1.466305
H     -2.451850    0.763014    1.510116
H     -5.006927    0.074565   -1.173819
H     -2.186092   -1.448579    1.962050
H     -4.983267    1.839371    0.487253
