50

C     -3.132172   -3.080317    0.102227
C      2.868636   -0.124325   -0.899376
C      1.480171    0.317600   -1.280651
C      3.710153    0.732335   -0.368965
C      0.505100   -0.510323   -0.491872
C      5.610055   -0.839185   -0.104629
C      5.881101    1.391690    0.586630
C     -2.577360    1.774026   -0.884468
C     -4.523380    0.218577   -0.788143
C      6.925517   -1.104515    0.297421
C      7.170980    1.124610    0.979020
C     -1.218694    1.282063   -0.562278
C     -5.608108   -0.345814   -0.197562
C     -4.127958    1.589294    1.061973
C     -2.318440   -2.102162   -0.654719
C      5.073274    0.416963    0.036882
C     -3.730058    1.190557   -0.228625
C      7.726884   -0.129029    0.845050
C     -0.953638   -0.116999   -0.857487
C     -5.980023    0.059108    1.065903
C     -5.222278    1.036468    1.687129
O     -2.176980   -2.290132   -1.894668
O      9.036475   -0.378533    1.249203
O     -7.083688   -0.503304    1.687784
O     -5.599802    1.446261    2.967446
O     -1.717206   -0.994057   -0.020896
H     -4.072700   -3.352091   -0.430031
H     -2.607814   -4.021691    0.310675
H     -3.434759   -2.576417    1.059646
H      3.158226   -1.147917   -1.067786
H      1.430818    1.391016   -1.112867
H      1.321782    0.094611   -2.372741
H      3.349426    1.758764   -0.225281
H      0.669427   -0.409127    0.590143
H      0.644626   -1.562539   -0.776549
H      5.013573   -1.641676   -0.532585
H      5.446464    2.382428    0.694188
H     -2.784360    1.707544   -2.006207
H     -2.611703    2.908489   -0.729377
H     -4.253021   -0.124032   -1.792162
H      7.316324   -2.101848    0.172356
H      7.776436    1.935759    1.412507
H     -0.916402    1.560131    0.492736
H     -0.458024    1.902359   -1.165011
H     -6.206364   -1.119098   -0.690950
H     -3.523019    2.352219    1.527176
H     -1.049080   -0.378267   -1.909257
H      9.788484   -0.246159    0.566278
H     -7.616435   -1.207029    1.221636
H     -6.400464    1.045334    3.431133
