55

C      4.504613   -2.240014    0.722660
C     -5.849377    2.866272   -1.135261
C     -2.808566   -3.423209    0.766235
C     -6.780447   -1.802813   -1.324245
C      4.607310    0.721891    1.258041
C      3.157260    0.638510    1.598342
C     -3.609973    1.332876   -0.487882
C     -2.644857   -0.717066    0.128531
C     -1.031394    2.535058   -0.459968
C      2.694361   -0.875576   -0.340515
C      4.156663   -1.174971   -0.294062
C     -2.501953    0.606103   -0.175473
C      4.945836    0.071368   -0.061700
C     -1.175247    1.205133   -0.157979
C     -4.890894    0.757243   -0.505022
C     -3.875747   -1.364827    0.135062
C     -4.964189   -0.582715   -0.188398
C      1.265892    2.322121   -0.128571
C      1.130043    0.975559    0.178381
C      6.384405   -0.247624   -0.174142
N      2.542506    2.928069   -0.118345
N      0.215366    3.087594   -0.440645
N     -0.092084    0.444536    0.156886
N      2.321198    0.266226    0.494013
O      7.138595    0.215123   -1.066669
O      6.925647   -1.112600    0.769157
O     -6.019420    1.497644   -0.823319
O     -3.996472   -2.714112    0.448171
O     -6.220383   -1.191161   -0.194479
H      3.700542   -2.975644    0.870153
H      5.387156   -2.814817    0.323449
H      4.858783   -1.762638    1.659178
H     -6.871488    3.299043   -1.213226
H     -5.262102    3.026319   -2.060756
H     -5.377294    3.373496   -0.248375
H     -2.239617   -2.916747    1.589437
H     -3.036397   -4.443959    1.143119
H     -2.143693   -3.520590   -0.114360
H     -6.437797   -2.857654   -1.400266
H     -6.519065   -1.234878   -2.242572
H     -7.898778   -1.800594   -1.242956
H      5.002792    1.764074    1.216051
H      5.212658    0.207692    2.060260
H      2.846242    1.643863    1.984058
H      2.958832   -0.067830    2.451350
H     -3.610114    2.378862   -0.742054
H     -1.771784   -1.313287    0.380459
H     -1.875586    3.195280   -0.721446
H      2.426513   -0.577673   -1.381141
H      2.064371   -1.762834   -0.103702
H      4.454032   -1.558216   -1.312647
H      4.717217    0.771405   -0.916413
H      3.221475    2.650753   -0.857020
H      2.762474    3.619071    0.611584
H      7.901940   -1.347135    0.829705
