50

C      1.779076   -3.434559    3.506084
C     -2.018586   -1.216614    0.021978
C     -0.626797   -1.322624    0.551000
C     -2.662567   -0.068468   -0.041140
C     -0.082609    0.010257    0.976160
C     -4.797756   -0.937613   -1.023407
C     -4.596193    1.350489   -0.566179
C      2.172999    2.028490    0.864756
C      4.454591    1.610080   -0.066307
C     -6.098211   -0.716928   -1.497763
C     -5.874004    1.589328   -1.028639
C      1.993106    1.017135    1.940757
C      5.288460    1.100535   -1.028975
C      2.569138    0.805222   -1.270928
C      1.859198   -2.459988    2.379551
C     -4.013078    0.086043   -0.546052
C      3.068135    1.464301   -0.181172
C     -6.641108    0.547416   -1.502109
C      1.328740   -0.231736    1.494362
C      4.814746    0.432836   -2.135679
C      3.449888    0.297698   -2.234524
O      2.428471   -2.730331    1.290915
O     -7.915949    0.830508   -1.956094
O      5.708580   -0.050557   -3.058872
O      2.916835   -0.371088   -3.337263
O      1.297134   -1.199366    2.499271
H      2.218374   -2.999716    4.411693
H      0.717316   -3.773722    3.654099
H      2.325312   -4.354601    3.186117
H     -2.543672   -2.092715   -0.329033
H     -0.018703   -1.800229   -0.239424
H     -0.580864   -1.999276    1.437778
H     -2.137507    0.819754    0.312859
H     -0.111521    0.764932    0.183585
H     -0.673955    0.419632    1.856415
H     -4.392074   -1.949931   -1.031312
H     -3.995277    2.180518   -0.193004
H      1.239944    2.334413    0.386881
H      2.727445    2.905978    1.289900
H      4.864499    2.121748    0.777147
H     -6.679284   -1.545606   -1.862931
H     -6.301662    2.598998   -1.029798
H      2.982203    0.718431    2.383775
H      1.426053    1.452702    2.788362
H      6.359229    1.227356   -0.915672
H      1.521409    0.647814   -1.449123
H      1.881689   -0.689393    0.624445
H     -7.987880    1.062673   -2.957852
H      5.440299   -0.549812   -3.894854
H      1.916385   -0.487548   -3.439783
