45

C      2.377525    0.724015   -1.144481
C      1.445974    1.688168   -1.738998
C      3.273168    1.148476   -0.274733
C      0.031164    1.377869   -1.345616
C      5.151058    0.817306    1.278925
C      4.316585   -1.062171    0.142451
C     -2.044855   -0.041112    0.132326
C     -3.952137   -1.534240    0.666152
C      6.089379    0.046607    1.922098
C      5.261973   -1.842307    0.789666
C     -1.901196   -0.144296   -1.360693
C     -5.297100   -1.768054    0.943724
C     -4.331943    0.814576    0.454396
C      4.239400    0.277797    0.370491
C     -3.492873   -0.268770    0.428918
C     -0.461267    0.047942   -1.763119
C      6.161353   -1.306814    1.686577
C     -6.145080   -0.671449    0.969261
C     -5.687758    0.605392    0.731020
O      0.242461   -1.023816   -1.194527
O      7.097963   -2.101824    2.322915
O     -7.488083   -0.934330    1.249958
O     -6.582009    1.661376    0.770022
H      2.351525   -0.299970   -1.417173
H      1.549015    1.604709   -2.861061
H      1.716391    2.746300   -1.507575
H      3.273526    2.206389   -0.041061
H     -0.082722    1.478642   -0.237632
H     -0.605955    2.216176   -1.747972
H      5.105842    1.887189    1.475221
H      3.649107   -1.554051   -0.543891
H     -1.796829    0.990532    0.520832
H     -1.420510   -0.777285    0.647686
H     -3.269663   -2.368087    0.639748
H      6.794641    0.459813    2.623951
H      5.285352   -2.907964    0.575385
H     -2.505227    0.628581   -1.884897
H     -2.280364   -1.130893   -1.722728
H     -5.674717   -2.753497    1.132168
H     -3.982039    1.825164    0.268070
H     -0.367762   -0.047799   -2.878202
H      0.380129   -0.894812   -0.237539
H      7.996554   -2.244741    1.902799
H     -8.144301   -0.180491    1.281105
H     -6.275696    2.605750    0.599738
