66

C     -6.987770    1.724238    2.606589
C     -6.839609    2.485255    0.176677
C      6.888245    1.776820    1.686113
C      6.001465    2.944927   -0.253380
C      0.690049    1.904057   -0.277472
C     -4.862871    1.770856    1.339920
C     -4.045133    2.018222    0.149347
C     -3.604100   -1.554024   -3.188214
C      3.417880   -3.862691   -0.615925
C     -2.926819   -2.658258   -3.637240
C      2.620276   -4.972869   -0.736726
C     -3.786517    0.175959   -1.528245
C      3.618942   -1.526175   -0.163778
C     -6.177081    1.978993    1.396498
C      6.106914    1.740160    0.623954
C     -3.360113    0.806399   -0.385414
C     -3.127576   -0.947001   -2.019408
C      2.833233   -2.654173   -0.293965
C      3.025652   -0.356629    0.153712
C     -1.817111   -3.141639   -2.950337
C      1.267374   -4.837524   -0.532303
C      5.348022    0.497094    0.320319
C     -2.253239    0.266385    0.239256
C      3.880866    0.865121    0.299212
C     -2.028204   -1.488872   -1.407695
C      1.463018   -2.586641   -0.101255
C      1.654798   -0.292204    0.343407
C     -1.575920   -0.863639   -0.243754
C      0.824596   -1.371389    0.230719
O     -1.247019   -4.176410   -3.437776
O      0.495973   -5.864843   -0.640377
O      5.583292   -0.394189    1.377512
O     -1.859368    0.929736    1.397096
O      3.573438    1.469744    1.504405
O      1.138390    0.939849    0.657200
O     -1.414358   -2.548594   -1.877845
O      0.791569   -3.669371   -0.232673
O     -0.495170   -1.338057    0.407096
H     -8.002299    1.396464    2.304412
H     -7.092342    2.696655    3.173560
H     -6.570573    0.934077    3.259335
H     -6.424807    3.502389   -0.028788
H     -6.680530    1.814768   -0.701935
H     -7.937962    2.577327    0.291083
H      7.439530    2.675306    1.906277
H      6.988814    0.928214    2.341241
H      5.643374    2.677750   -1.258880
H      7.019523    3.408928   -0.394200
H      5.391790    3.756241    0.224892
H      1.498517    2.420859   -0.815730
H      0.021362    1.477318   -1.049332
H      0.152043    2.693147    0.301454
H     -4.396797    1.392147    2.250099
H     -3.312636    2.826067    0.406594
H     -4.706468    2.478187   -0.614267
H     -4.459204   -1.128266   -3.661805
H      4.486882   -3.915799   -0.768413
H     -3.275187   -3.145347   -4.534150
H      3.034413   -5.952443   -0.990982
H     -4.648113    0.565936   -2.053880
H      4.687572   -1.665500   -0.336324
H      5.715441    0.116106   -0.648526
H      3.681115    1.581452   -0.515058
H      6.450075   -0.851349    1.192252
H     -1.126482    0.701759    2.010909
H      3.606931    0.848983    2.251150
