66

C      6.695803   -2.085737    0.795111
C      8.075567   -0.652895   -0.806281
C     -5.279115   -3.085926   -0.644455
C     -6.891020   -1.469647   -1.390591
C     -2.323500   -0.853788    3.245235
C      5.653359   -0.931674   -1.066759
C      4.296899   -1.446862   -0.744488
C      3.823657    3.221121    0.468158
C     -2.521759    1.444141   -3.063309
C      3.043247    4.245642    0.949042
C     -1.371115    1.852965   -3.670632
C      3.977658    0.941446   -0.137444
C     -3.610172    0.562250   -1.076487
C      6.742340   -1.210064   -0.386435
C     -5.911271   -1.939309   -0.372797
C      3.428512   -0.334687   -0.291315
C      3.200110    1.969469    0.338328
C     -2.459241    0.972220   -1.758706
C     -3.598787    0.120590    0.195509
C      1.727723    3.949380    1.254152
C     -0.200722    1.763177   -2.925903
C     -5.604876   -1.302776    0.900634
C      2.094106   -0.482186    0.052886
C     -4.751707   -0.128066    1.029216
C      1.896602    1.794708    0.669135
C     -1.250139    0.923980   -1.106933
C     -2.338000    0.071697    0.858444
C      1.292397    0.526592    0.529687
C     -1.166343    0.470940    0.206810
O      0.966524    4.876512    1.709086
O      0.919947    2.129502   -3.460375
O     -6.884939   -0.988139    1.464428
O      1.610549   -1.802862   -0.146465
O     -4.598490    0.243332    2.381880
O     -2.336246   -0.358078    2.080046
O      1.167675    2.784542    1.124736
O     -0.156822    1.322290   -1.717220
O      0.004587    0.401857    0.875336
H      7.740729   -2.434170    1.046147
H      6.077906   -2.966971    0.731186
H      6.388798   -1.461513    1.684093
H      8.041055   -0.164874   -1.794511
H      8.801106   -1.507469   -0.880244
H      8.514310    0.029416   -0.072220
H     -4.553092   -3.461493    0.072877
H     -5.446548   -3.677145   -1.522828
H     -7.856371   -2.072648   -1.140887
H     -6.634849   -1.857513   -2.383288
H     -7.144136   -0.411709   -1.344884
H     -2.586043   -0.151482    4.121226
H     -3.097033   -1.705702    3.373097
H     -1.380597   -1.401293    3.539362
H      5.741314   -0.281487   -1.946456
H      4.377352   -2.142278    0.124529
H      3.847547   -2.030543   -1.598840
H      4.857113    3.375903    0.215029
H     -3.495785    1.478389   -3.563060
H      3.418864    5.240675    1.093692
H     -1.366868    2.212944   -4.715021
H      5.039590    1.065967   -0.404832
H     -4.526535    0.635801   -1.652838
H     -5.276906   -2.124904    1.673607
H     -5.503733    0.753492    0.695543
H     -6.838758   -0.245629    2.063819
H      0.637421   -1.947409    0.105210
H     -5.138847   -0.262008    3.007592
