64

C     -1.966522   -0.833382    3.686764
C      0.057351   -1.756271    2.753674
C      3.071934   -2.790237   -1.450953
C      3.156168   -3.250042    0.922185
C     -2.657172    3.138981   -1.266583
C      3.241379    4.160159   -0.823926
C     -3.192568   -3.170778   -0.917761
C      2.207837    5.044566   -0.945678
C     -4.150987   -3.809599   -1.690327
C      4.810530   -0.292596   -0.199338
C      4.575483   -1.565680   -0.077039
C      3.970611    1.956430   -0.477280
C     -2.224727   -1.152193    0.009809
C     -0.925188   -0.652872    2.852151
C      2.935563    2.827502   -0.588698
C     -3.166238   -1.810509   -0.747643
C      3.669424    0.633528   -0.257263
C     -2.210085    0.239636    0.167499
C     -5.112942   -3.031286   -2.311185
C      0.897577    4.553972   -0.827156
C     -0.799999    0.586407    2.154777
C     -4.188733    0.281206   -1.267993
C     -4.167456   -1.101879   -1.405847
C      1.624139    2.425314   -0.483556
C      2.350612    0.206328   -0.148231
C     -3.245389    0.899789   -0.511378
C     -1.058724    0.946812    0.773127
C      1.269898    1.082686   -0.250851
C      3.208362   -2.102458   -0.015315
O     -6.025467   -3.511535   -3.035164
O      0.011181    5.433025   -0.960451
O      0.349759    1.300256    2.655814
O     -5.175584    1.036438   -1.897949
O     -3.292307    2.279943   -0.370089
O     -5.060774   -1.725160   -2.128392
O      0.672608    3.285199   -0.602633
O      0.006202    0.758975   -0.163363
O      2.193149   -1.149507    0.043907
H     -2.174187   -1.689684    4.286861
H     -2.689972    0.009211    3.773522
H      0.990788   -1.450142    2.288085
H     -0.395820   -2.660570    2.312902
H      0.362875   -2.086880    3.792304
H      2.119513   -3.303263   -1.507217
H      3.237821   -2.014020   -2.212429
H      3.911596   -3.499324   -1.467492
H      3.625919   -2.995745    1.889904
H      3.870204   -4.029296    0.487360
H      2.172361   -3.742787    1.000101
H     -1.767400    2.726259   -1.770418
H     -3.351564    3.449281   -2.100953
H     -2.321298    4.065389   -0.725393
H      4.286608    4.453477   -0.902690
H     -2.444561   -3.792221   -0.440368
H      2.422080    6.062651   -1.124065
H     -4.202923   -4.874379   -1.835560
H      5.837933    0.109993   -0.264486
H      5.408193   -2.249772   -0.029287
H      4.992578    2.277277   -0.552758
H     -1.478058   -1.765357    0.465742
H     -1.627031    1.295155    2.726087
H     -1.315059    2.060708    0.778480
H      0.140568    2.253372    2.770410
H     -5.270068    2.019498   -1.836304
