94

C     10.180166    2.600510    0.229727
C     -0.549258   -5.236043   -3.742021
C      1.185931   -1.415341   -3.432873
C     -4.725537    0.012632   -5.556835
C      2.106412   -2.080194    2.311475
C      1.541930   -0.717880    2.069063
C     -4.753810    2.768908    3.591606
C     -3.158869    3.582255    2.057156
C      6.263199    3.635730    3.355182
C     -0.822608   -0.630144    1.306117
C     -4.482459    1.597545    1.422835
C      5.859079    1.231374    2.803488
C     -5.134030   -3.256460   -4.296551
C     -4.469885    3.762827    4.492080
C     -2.867703    4.572176    2.940500
C      7.038773    4.751782    3.183021
C     -5.291200   -4.598979   -4.448130
C     -1.820387   -0.687776    0.322625
C     -5.469323    0.733933    1.545340
C      4.768958    1.193885    3.529598
C      3.156071   -2.215165    3.362964
C      7.765411    2.544891    1.924922
C      0.790114   -0.975679   -0.338215
C     -2.829328   -3.483953   -3.961566
C     -4.859271   -1.160263   -1.673738
C     -4.136752    2.629907    2.369821
C      0.486511   -0.772013    0.980818
C      6.642301    2.456257    2.690868
C     -3.930606   -2.664324   -4.055523
C     -3.503429    4.708838    4.188551
C      8.142108    4.813028    2.422627
C     -4.178542   -5.419389   -4.355597
C     -1.551922   -0.885747   -1.001668
C      8.560628    3.639844    1.729499
C     -2.921754   -4.877204   -4.108241
C     -0.163372   -1.039460   -1.329067
C     -3.620412   -0.718336   -2.508842
C      3.946557    0.010639    3.678240
C     -5.708538   -0.283712    0.481685
C     -3.793011   -1.176081   -3.914427
O     -3.166186    5.738576    5.044870
O      8.919234    5.978063    2.266916
O     -4.264704   -6.791932   -4.506469
O      2.882978    0.091425    4.395546
O     -6.646788   -1.065619    0.567888
O      9.681101    3.700284    0.952792
O     -1.827550   -5.716340   -4.014884
O      0.118324   -1.242337   -2.629192
O     -5.033003   -0.687341   -4.378982
O      4.184736   -1.245843    3.114173
O     -4.837794   -0.303514   -0.574627
O     -2.444943   -0.921077   -1.991994
H      9.304904    1.983160   -0.047068
H     10.899610    2.008382    0.848275
H     10.670944    3.003222   -0.684533
H     -0.499823   -5.099808   -2.612945
H     -0.309492   -4.279659   -4.238059
H      0.236258   -6.027919   -3.968419
H      1.117585   -0.671883   -4.286598
H      1.139206   -2.449147   -3.891458
H      2.206217   -1.341781   -2.967764
H     -4.253039   -0.684916   -6.302745
H     -5.687389    0.412109   -5.942772
H     -4.032578    0.820151   -5.260118
H      2.405620   -2.552459    1.339742
H      1.234483   -2.742436    2.646320
H      2.319914    0.005999    1.772951
H      0.975106   -0.328419    2.948375
H     -5.505042    2.058267    3.863029
H     -2.670956    3.487958    1.115595
H      5.397786    3.685097    3.964847
H     -1.119739   -0.467934    2.352728
H     -3.880106    1.518656    0.504775
H      6.195955    0.358149    2.271340
H     -6.027974   -2.596192   -4.361937
H     -4.989730    3.811922    5.430892
H     -2.101836    5.331199    2.710208
H      6.743488    5.687721    3.709268
H     -6.265256   -4.998548   -4.641087
H     -2.832086   -0.591056    0.677196
H     -6.090328    0.765929    2.400847
H      4.416679    2.076002    4.080552
H      2.710813   -2.077358    4.356572
H      3.551291   -3.243838    3.329312
H      8.049899    1.586572    1.416163
H      1.855996   -1.088445   -0.581323
H     -1.836456   -3.071728   -3.769710
H     -5.775532   -1.078361   -2.285146
H     -4.711290   -2.207859   -1.408516
H     -3.844783    0.439603   -2.492627
H     -2.967381   -0.883333   -4.547691
H     -2.416492    5.594722    5.733227
H      8.609373    6.788710    2.763403
H     -3.481365   -7.427613   -4.457649
