40

C      2.455940   -0.715941    1.745422
C      4.234758   -1.509052    0.297244
C     -1.178003    3.441482    0.028764
C     -4.214753    1.526068    0.186554
C     -0.930415   -2.952180   -0.738463
C     -2.138143   -3.628554   -0.648164
C      0.246557   -0.886285   -0.400843
C      3.077484   -0.624948    0.597013
C     -0.919700   -1.631233   -0.341793
C      0.245166    0.433746   -0.001204
C     -3.266530   -2.978476   -0.176328
C      2.682490    0.348185   -0.468184
C      1.508688    1.188346   -0.079781
C     -2.079017   -1.016462    0.126873
C     -0.920868    1.015114    0.458787
C     -2.109382    0.293062    0.530264
O     -4.332697   -3.643365   -0.117066
O      3.787543    1.230456   -0.562447
O      1.337724    2.148860   -1.087940
O     -0.913212    2.342160    0.857644
O     -3.263099    0.862012    0.983681
O     -3.172558   -1.719683    0.181140
H      1.608613   -0.109318    2.036163
H      2.786808   -1.439480    2.480311
H      4.989002   -1.483927    1.132661
H      3.874201   -2.575585    0.207195
H      4.740358   -1.270947   -0.637859
H     -2.144905    3.934139    0.282188
H     -0.371666    4.198640    0.211215
H     -1.174075    3.228220   -1.050359
H     -5.210832    1.076222    0.216416
H     -3.854981    1.445502   -0.870505
H     -4.295529    2.600954    0.406138
H     -0.027038   -3.419713   -1.100075
H     -2.187982   -4.678918   -0.953629
H      1.151898   -1.334010   -0.759016
H      2.597063   -0.100118   -1.467933
H      1.737691    1.733500    0.844702
H      3.936455    1.653727    0.327106
H      1.706945    3.017802   -0.857399
