94

C      9.620849    4.563829    4.788231
C     -6.846817   -6.946240    0.792140
C      1.481917   -3.098731   -2.453361
C     -5.565617   -2.719760   -3.758404
C      1.553142    2.685129   -2.531831
C      0.779248    1.960383   -3.597510
C     -4.503112    4.408888    2.456688
C     -2.740524    3.253931    3.524322
C      8.433852    2.499633    0.321045
C     -1.321364    1.077983   -2.688156
C     -4.105651    2.088077    1.860265
C      6.155555    3.120081    1.179981
C     -2.936342   -5.327339   -1.874642
C     -4.255568    5.568010    3.156279
C     -2.468456    4.427565    4.250170
C      9.808112    2.425368    0.488250
C     -2.672766   -6.629260   -1.501414
C     -2.141737    0.080819   -2.156126
C     -3.513518    0.908949    1.933493
C      5.487254    2.601043    0.139901
C      2.509583    1.726214   -1.822027
C      8.249912    3.541490    2.421422
C      0.503164   -0.422187   -2.868234
C     -5.001611   -5.481557   -0.734071
C     -3.834774   -2.503092    0.361694
C     -3.758561    3.245810    2.627210
C     -0.011716    0.858087   -3.049175
C      7.621035    3.054604    1.275775
C     -4.121584   -4.731785   -1.488241
C     -3.206317    5.564691    4.075602
C     10.439750    2.898217    1.611126
C     -3.544471   -7.399072   -0.744357
C     -1.642730   -1.184164   -1.971854
C      9.613403    3.470338    2.594773
C     -4.717604   -6.777814   -0.375007
C     -0.299053   -1.394161   -2.346143
C     -3.676209   -2.300301   -1.107046
C      4.031066    2.655481    0.032767
C     -3.969536   -0.183473    1.097631
C     -4.460009   -3.362011   -1.867625
O     -2.965432    6.743875    4.778755
O     11.811023    2.830312    1.793332
O     -3.252095   -8.714106   -0.383421
O      3.365111    3.230689    0.964934
O     -4.921398   -0.009591    0.297291
O     10.275326    3.937212    3.709409
O     -5.625104   -7.533775    0.392591
O      0.185754   -2.686999   -2.151336
O     -4.355714   -3.117390   -3.211114
O      3.297511    2.176936   -0.916792
O     -3.383710   -1.430715    1.160724
O     -2.352103   -2.247739   -1.460400
H      8.700830    5.070891    4.473638
H      9.380443    3.837957    5.596085
H     10.298339    5.334237    5.254052
H     -6.651009   -6.167341    1.559493
H     -7.373190   -6.504070   -0.070746
H     -7.481741   -7.728506    1.268494
H      1.572258   -4.198771   -2.540225
H      2.173930   -2.822628   -1.608316
H      1.872963   -2.685502   -3.396210
H     -6.306603   -3.508483   -3.598677
H     -5.407542   -2.489659   -4.838381
H     -5.915999   -1.780109   -3.279152
H      2.173793    3.491261   -2.940844
H      0.831170    3.023287   -1.778582
H      0.073286    2.713511   -4.046413
H      1.428595    1.650925   -4.446341
H     -5.330691    4.411620    1.730320
H     -2.117571    2.368051    3.701307
H      8.002271    2.116592   -0.585779
H     -1.734740    2.082338   -2.829781
H     -4.927678    2.154986    1.141928
H      5.533815    3.582368    1.925589
H     -2.191752   -4.802472   -2.469856
H     -4.846770    6.454885    3.006584
H     -1.663044    4.431197    4.958659
H     10.444480    1.976243   -0.287131
H     -1.729290   -7.075417   -1.820767
H     -3.146122    0.326454   -1.901141
H     -2.682511    0.780164    2.633552
H      6.106078    2.137275   -0.611104
H      3.020113    1.101485   -2.640786
H      1.819334    0.914751   -1.372668
H      7.614516    3.978158    3.175195
H      1.524279   -0.644748   -3.145216
H     -5.962131   -5.060475   -0.397959
H     -3.219374   -3.390197    0.687196
H     -4.880667   -2.752378    0.622257
H     -4.154737   -1.327357   -1.424418
H     -5.533538   -3.169085   -1.581714
H     -2.349905    7.478577    4.479140
H     12.363294    2.405180    1.057364
H     -2.378546   -9.117578   -0.686162
