91

C      8.625508   -0.587877   -4.725059
C     -6.498312    5.819380   -0.320895
C      1.070340    0.134014   -1.246580
C      3.273955   -2.302871    3.457028
C      3.108517   -0.811443    3.439366
C     -5.569906   -2.245387   -4.112432
C     -6.340458   -4.145345   -2.956556
C      8.403037    0.541970    0.168421
C      0.675031   -0.345576    3.751022
C     -5.262411   -2.304387   -1.649187
C      6.461640   -0.949572   -0.022291
C     -2.459165    3.462342    1.674196
C     -5.997155   -2.777347   -5.309115
C     -6.772082   -4.691400   -4.131878
C      9.491869    1.214997   -0.326695
C     -2.068806    4.787088    1.440269
C     -0.588932   -0.033376    3.299356
C     -5.393192   -2.849310   -0.463528
C      5.651422   -1.738620   -0.675542
C      3.204630   -2.827209    2.031496
C      7.936862   -0.366257   -1.954288
C      1.495310   -0.269727    1.557855
C     -4.611185    3.957834    0.820249
C     -3.951083   -0.665425    2.259766
C     -5.734468   -2.925045   -2.899562
C      1.773173   -0.476105    2.886919
C      7.585369   -0.273029   -0.623491
C     -3.724681    3.025622    1.371850
C     -6.607108   -4.020160   -5.310933
C      9.811099    1.096315   -1.662725
C     -2.981486    5.662756    0.895199
C     -0.811020    0.164594    1.941343
C      9.028464    0.300368   -2.482517
C     -4.262112    5.265353    0.577905
C      0.242736    0.044648    1.062137
C     -3.224153    0.696304    2.182137
C      4.514581   -2.404131    0.002014
C     -4.951091   -2.288383    0.794766
C     -4.210891    1.634677    1.570253
O     -7.071796   -4.638697   -6.461532
O     10.913076    1.781579   -2.150204
O     -2.623139    6.971451    0.653768
O      3.781649   -3.152078   -0.670219
O     -5.170332   -2.954172    1.862165
O     -5.381198    1.743002    2.362019
O      9.388582    0.209175   -3.833045
O     -5.180600    6.166458    0.024119
O      0.017354    0.243833   -0.300065
O      4.261076   -2.213281    1.334528
O     -4.304210   -1.076788    0.948963
O     -2.060789    0.482049    1.448187
H      9.112264   -0.521413   -5.720339
H      7.610062   -0.092777   -4.745816
H      8.594415   -1.608521   -4.310909
H     -6.554727    5.236155   -1.268511
H     -7.164175    6.717988   -0.372864
H     -6.906792    5.175729    0.479968
H      1.972847    0.689538   -0.955617
H      0.691951    0.540808   -2.199587
H      1.267900   -0.947089   -1.377226
H      2.457092   -2.791088    4.068786
H      4.233939   -2.619325    3.881808
H      3.864464   -0.374907    2.724928
H      3.242267   -0.415960    4.464086
H     -5.087500   -1.259205   -4.106687
H     -6.488049   -4.708881   -2.051956
H      8.178569    0.656458    1.221297
H      0.887471   -0.507874    4.807071
H     -4.765570   -1.325099   -1.675921
H      6.263632   -0.807173    1.032961
H     -1.752337    2.771554    2.111972
H     -5.878742   -2.266482   -6.253280
H     -7.254174   -5.679064   -4.108767
H     10.128001    1.850049    0.296337
H     -1.080449    5.092932    1.685644
H     -1.392076    0.047049    4.039907
H     -5.885370   -3.822841   -0.431908
H      5.820234   -1.902042   -1.726948
H      3.312649   -3.935881    2.046878
H      2.209963   -2.596961    1.624603
H      7.361465   -0.970026   -2.629577
H      2.291549   -0.350044    0.837787
H     -5.611925    3.617646    0.579321
H     -3.362459   -1.417663    2.795676
H     -4.862629   -0.469283    2.869718
H     -2.956618    0.957144    3.231074
H     -4.557472    1.201486    0.583458
H     -8.033107   -4.467739   -6.757082
H     11.477897    2.354446   -1.558447
H     -3.230480    7.665418    0.258522
H     -5.057500    2.210123    3.195749
