37

C     -4.275031    0.844351    0.656783
C     -3.979564    0.620031   -1.727958
C      0.295773   -3.502997   -0.227921
C      2.646788    2.359104    0.893396
C      3.991918    2.454236    1.094388
C      0.757000    1.043359    0.209675
C     -3.417446    0.783739   -0.350524
C      2.124331    1.168755    0.423418
C      0.260659   -0.149269   -0.257230
C      4.805676    1.376238    0.830039
C     -1.981334    0.878991   -0.067874
C     -1.192939   -0.316821   -0.503224
C      2.505678   -1.049133   -0.282240
C      3.001583    0.135241    0.182099
C      1.156387   -1.191737   -0.499415
O      6.057321    1.437689    1.007914
O     -1.809123    1.131233    1.287231
O     -1.631708   -1.404419    0.249666
O      3.399790   -2.091697   -0.524738
O      0.699435   -2.392831   -0.964481
O      4.301292    0.251945    0.384676
H     -3.974162    0.962026    1.694270
H     -5.345605    0.778432    0.497216
H     -3.363929   -0.011998   -2.375630
H     -4.981433    0.142066   -1.659112
H     -4.174801    1.628051   -2.196009
H     -0.714871   -3.850017   -0.590808
H      0.975450   -4.371518   -0.386282
H      0.209267   -3.341625    0.857361
H      1.991450    3.197455    1.096016
H      4.469596    3.357608    1.461498
H      0.162189    1.912220    0.425268
H     -1.582018    1.784106   -0.611066
H     -1.280545   -0.513826   -1.595121
H     -2.053164    0.307155    1.775533
H     -1.120231   -1.363350    1.105615
H      3.066319   -3.002791   -0.875705
