64

C      9.016408    0.319930    1.575582
C     -9.233997    1.220515   -0.264602
C      6.795924    1.933157   -1.269390
C     -5.964391   -0.169019    2.884912
C      1.267587   -2.711976   -0.555952
C     -1.319937   -1.634873   -2.165561
C      2.610935   -2.903314   -0.318037
C     -2.659383   -1.476009   -2.419489
C      7.160446   -0.764700    0.354661
C     -7.290458   -0.083607   -0.963768
C      7.506649    0.300797    1.340627
C     -7.785702    0.978854    0.001555
C      6.109686    1.656575    0.061449
C     -6.181167    0.625921    1.594735
C      0.678981   -1.483628   -0.713984
C     -0.745351   -1.311592   -0.965645
C      3.398518   -1.764321   -0.237225
C     -3.484806   -0.969057   -1.436174
C      5.698667   -0.693755    0.103475
C     -5.832014   -0.248071   -0.654659
C      5.178686    0.513243   -0.041952
C     -5.314283    0.073764    0.513319
C      2.861272   -0.497997   -0.388217
C     -2.942624   -0.626658   -0.199361
C      4.847272   -1.871452    0.014274
C     -4.907863   -0.778156   -1.648190
C      1.501847   -0.350549   -0.626843
C     -1.601660   -0.795202    0.028447
C      3.743860    0.655958   -0.292663
C     -3.868118   -0.099514    0.786206
O      5.361812   -3.009309    0.155489
O     -5.395049   -1.091291   -2.774712
O      0.896875    0.860232   -0.786490
O     -1.001875   -0.484503    1.206533
O      3.319872    1.823177   -0.419682
O     -3.448423    0.229106    1.920941
O      7.038795    1.551621    1.059001
O     -7.505341    0.520518    1.266302
H      9.274890   -0.318520    2.456008
H      9.347055    1.361614    1.788124
H      9.531272   -0.130075    0.703458
H     -9.399241    2.331923   -0.242161
H     -9.911435    0.677933    0.408407
H     -9.511502    0.907966   -1.313030
H      6.510224    2.923293   -1.685214
H      7.906843    1.989620   -1.095637
H      6.529935    1.185991   -2.040818
H     -5.550310    0.501464    3.646310
H     -6.932014   -0.606815    3.257140
H     -5.280228   -1.010986    2.663839
H      0.594893   -3.579699   -0.629615
H     -0.655711   -2.037785   -2.942734
H      3.063313   -3.854878   -0.196439
H     -3.121916   -1.730413   -3.369247
H      7.369042   -1.746448    0.822122
H      7.750072   -0.722730   -0.575891
H     -7.455073    0.220056   -2.015722
H     -7.772881   -1.051096   -0.788466
H      7.046061   -0.007970    2.324871
H     -7.147081    1.878412   -0.184574
H      5.479025    2.565002    0.288951
H     -5.958101    1.717381    1.773206
H      1.160632    1.782866   -0.784708
H     -1.379415   -0.127817    2.006905
