88

C     12.098533    2.025781   -1.974823
C     -7.416891    2.279589    0.050828
C      2.953233    1.632417   -1.613745
C      2.668525   -0.743716    3.432945
C      2.325032   -1.613889    2.259396
C     -8.641187   -2.680042   -2.195395
C     -9.395190   -2.166205   -0.020855
C      8.819795   -1.373026   -0.136379
C     -6.974576   -2.166202   -0.499728
C      7.710436    0.715533    0.532010
C     -2.498079    2.659996    0.791857
C     -9.957624   -2.854208   -2.630594
C    -10.712242   -2.333615   -0.426267
C      9.856437   -2.096654   -0.752679
C     -3.020700    3.738049    1.440421
C     -6.537096   -1.843750    0.699846
C      6.698179    0.137035    1.121384
C      3.450535    0.498662    2.973442
C      0.062185   -1.022518    1.453457
C      9.858112    0.674174   -0.700184
C      1.876679   -0.032689    0.341459
C     -4.648198    1.915059    0.088296
C     -2.763694   -1.792745    0.117387
C     -8.352378   -2.336122   -0.893091
C      8.800039   -0.018652   -0.099005
C      1.444986   -0.866114    1.329188
C     -3.271914    1.745060    0.117100
C    -10.998552   -2.677118   -1.729363
C     -0.812611   -0.370677    0.621116
C     -2.310675   -0.409748    0.545739
C     10.884525   -1.400967   -1.337030
C     -4.401905    3.899075    1.404884
C     10.885360   -0.013388   -1.310666
C     -5.192443    2.985172    0.729896
C      1.040827    0.656983   -0.532145
C      5.582458    0.833188    1.765396
C     -5.090282   -1.700436    0.971901
C     -2.605551    0.601812   -0.531396
C     -0.316854    0.465768   -0.366448
O    -12.296026   -2.850058   -2.162360
O     11.927301   -2.066564   -1.956673
O     -5.006102    4.972835    2.041627
O      5.504953    2.063145    1.806421
O     -4.719511   -1.395508    2.120254
O     11.945580    0.638973   -1.914687
O     -6.560733    3.194815    0.731373
O      1.542058    1.495827   -1.520726
O      4.604593    0.056998    2.327973
O     -4.139314   -1.888710    0.013863
O     -1.387765    1.004450   -1.070277
H     13.122684    2.311047   -2.347919
H     12.025272    2.501399   -0.982962
H     11.303278    2.445408   -2.655649
H     -7.526350    1.348363    0.658160
H     -8.427096    2.689968   -0.051369
H     -6.971509    2.047273   -0.925581
H      3.363455    2.083509   -0.664006
H      3.246315    2.327783   -2.413679
H      3.454806    0.655254   -1.763361
H      1.757732   -0.381013    3.942598
H      3.282642   -1.282821    4.163130
H      1.844266   -2.535581    2.634464
H      3.269659   -1.872781    1.728772
H     -7.882803   -2.833776   -2.942344
H     -9.238264   -1.899710    1.003367
H      8.063657   -2.010175    0.290793
H     -6.178428   -2.313571   -1.247554
H      7.740001    1.808387    0.507964
H     -1.409739    2.546978    0.828149
H    -10.198101   -3.122749   -3.647293
H    -11.538172   -2.199027    0.269928
H      9.856547   -3.181155   -0.774705
H     -2.432551    4.470262    1.976318
H     -7.271843   -1.687672    1.473801
H      6.719625   -0.965398    1.118424
H      3.714038    1.028357    3.913647
H      2.841979    1.163341    2.353576
H     -0.331672   -1.677690    2.228943
H      9.849840    1.773189   -0.671896
H      2.946574    0.121278    0.200242
H     -5.206396    1.172362   -0.452088
H     -2.292439   -2.555515    0.770724
H     -2.330054   -1.970521   -0.904641
H     -2.737447   -0.177329    1.522029
H     -3.276172    0.151664   -1.317462
H    -13.088385   -2.736804   -1.565060
H     11.921308   -3.084430   -1.974781
H     -4.498520    5.664821    2.544656
