88

C     11.003713    3.150608    0.118346
C     -4.558088    3.335469   -2.630763
C      2.885216    2.816723    0.955837
C      3.078205   -2.158494   -2.089770
C      2.781893   -2.198128   -0.604549
C     -9.096857   -2.927426    0.797194
C     -8.992127   -0.717181    0.020328
C      8.880838   -1.209113    1.256078
C     -6.859140   -1.896864    0.448778
C      7.309370   -0.273835   -0.358953
C     -4.632105    0.996272    1.733120
C    -10.495198   -2.841180    0.756258
C    -10.365452   -0.616372   -0.025334
C     10.034727   -1.161137    2.009247
C     -5.914473    1.529511    1.568300
C     -6.135017   -2.918201    0.806556
C      6.900497    0.653719   -1.190897
C      3.669270   -0.827576   -2.492604
C      0.446299   -1.426642   -0.320366
C      9.379142    0.907221    0.342627
C      2.184250    0.133847    0.135066
C     -3.985641    1.892626   -0.334807
C     -2.501527   -1.847682    0.457129
C     -8.316659   -1.855382    0.425718
C      8.529554   -0.166677    0.402062
C      1.796546   -1.123198   -0.251454
C     -3.642729    1.166318    0.787081
C    -11.136393   -1.697383    0.349075
C     -0.489104   -0.473403   -0.004017
C     -1.971075   -0.513808    0.004938
C     10.875858   -0.068488    1.933563
C     -6.227506    2.253278    0.432729
C     10.540975    0.966636    1.094761
C     -5.243812    2.425747   -0.514266
C      1.247091    1.081986    0.450077
C      5.637313    0.455820   -1.926621
C     -4.674990   -2.922054    0.816567
C     -2.298836    0.594629    0.979711
C     -0.127433    0.788126    0.384432
O    -12.519623   -1.601306    0.304343
O     12.038898    0.020100    2.668856
O     -7.520538    2.777772    0.291256
O      5.228286    1.321579   -2.722553
O     -4.020631   -3.936488    1.170196
O     11.342024    2.083098    0.977574
O     -5.557441    3.151457   -1.651483
O      1.581403    2.346961    0.839474
O      4.882575   -0.691135   -1.750051
O     -3.919318   -1.814879    0.439298
O     -1.279338    1.551169    0.646085
H     10.774370    2.819786   -0.914934
H     10.100670    3.696593    0.480178
H     11.824060    3.889492    0.054272
H     -3.703381    3.946250   -2.274300
H     -4.143527    2.339434   -2.910959
H     -4.987190    3.868416   -3.503769
H      3.188144    2.844565    2.047502
H      2.871157    3.887776    0.570537
H      3.663980    2.241653    0.436968
H      3.815549   -2.961263   -2.280150
H      2.132999   -2.362216   -2.637115
H      2.363974   -3.209584   -0.390089
H      3.693245   -2.068903   -0.009616
H     -8.646256   -3.846076    1.123771
H     -8.416056    0.141878   -0.279085
H      8.244415   -2.094504    1.348040
H     -6.319548   -0.999729    0.142956
H      6.664787   -1.164202   -0.262552
H     -4.419427    0.443381    2.620338
H    -11.108573   -3.677994    1.046646
H    -10.829668    0.316813   -0.356283
H     10.332796   -1.960967    2.683298
H     -6.682145    1.391050    2.313408
H     -6.632632   -3.818821    1.115887
H      7.449698    1.544690   -1.350795
H      3.838344   -0.839648   -3.576800
H      2.952792   -0.019649   -2.237442
H      0.173964   -2.435974   -0.630359
H      9.147741    1.748607   -0.309819
H      3.236214    0.333347    0.181362
H     -3.191186    2.019310   -1.079777
H     -2.190161   -2.588976   -0.327113
H     -2.075946   -2.182232    1.402636
H     -2.315200   -0.251776   -1.009193
H     -2.098445    0.301177    2.008852
H    -13.049530   -2.413629    0.584069
H     12.345017   -0.706225    3.305634
H     -7.777937    3.311512   -0.528034
