91

C     11.605589   -0.500518    2.100968
C     -6.179482   -0.612544    4.755930
C     -2.532144    4.454796    2.569088
C      3.385688    1.396075    3.541852
C      3.003964    2.391049    2.548399
C     -7.141741   -2.744080   -4.461488
C     -8.087469   -1.801229   -6.362666
C      9.005182    0.195170   -2.082659
C      1.486789    1.186077    0.958251
C     -6.550077   -0.385722   -4.952011
C      7.234605    0.240079   -0.405998
C     -2.852936   -1.577703    0.978978
C     -7.740038   -3.968754   -4.747982
C     -8.707873   -2.992330   -6.692926
C     10.359877    0.197536   -2.461201
C     -2.652349   -2.519807    2.001413
C      0.208553    1.061257    0.384718
C     -5.661548   -0.401098   -3.984408
C      6.766276   -0.024629    0.771564
C      3.741939    0.000327    3.097329
C      9.623254   -0.113875    0.182982
C      0.623212    2.965532    2.325381
C     -4.617487   -0.595008    2.233030
C     -3.093728    1.512387   -1.952494
C     -7.299400   -1.636453   -5.261093
C      1.680158    2.125509    1.913046
C      8.606308    0.050103   -0.813214
C     -3.812807   -0.605412    1.051714
C     -8.525338   -4.123260   -5.849463
C     11.290474    0.049551   -1.525162
C     -3.427688   -2.485831    3.109796
C     -0.814614    1.861045    0.776521
C     10.959069   -0.113333   -0.161355
C     -4.425515   -1.504751    3.226986
C     -0.637256    2.869828    1.786062
C     -2.782308    1.021693   -0.562105
C      5.365759    0.194335    1.178594
C     -4.829880    0.708229   -3.526295
C     -4.043281    0.443311    0.078697
O     -9.149589   -5.305142   -6.207836
O     12.663808    0.058136   -1.838797
O     -3.301936   -3.391508    4.177482
O      4.673507    0.713253    0.201367
O     -4.890684    1.839886   -4.083983
O     -4.728613    1.540882    0.586022
O     12.010182   -0.267786    0.732017
O     -5.168211   -1.514834    4.383968
O     -1.654006    3.615146    2.109766
O      4.802211   -0.042853    2.298218
O     -3.992005    0.511808   -2.493932
O     -2.056825    1.779733    0.274833
H     12.348509   -0.022366    2.758933
H     10.649532    0.056457    2.318992
H     11.542978   -1.585521    2.294846
H     -7.178308   -1.071326    4.912225
H     -6.177656    0.341226    4.237092
H     -5.877495   -0.335393    5.843075
H     -2.388658    4.914804    3.610839
H     -2.621724    5.396420    1.878379
H     -3.596105    4.061916    2.583311
H      2.473491    1.239572    4.228641
H      4.131675    1.833298    4.261206
H      2.933997    3.382350    3.138742
H      3.774847    2.626517    1.782041
H     -6.564884   -2.703618   -3.568966
H     -8.226362   -0.914166   -7.013461
H      8.242783    0.298393   -2.878717
H      2.268656    0.542478    0.624903
H     -6.755432    0.489420   -5.503137
H      6.517196    0.676722   -1.136259
H     -2.212019   -1.657060    0.112957
H     -7.587770   -4.830137   -4.094773
H     -9.316943   -3.119692   -7.548580
H     10.591700    0.331998   -3.538629
H     -1.853357   -3.273939    1.913978
H      0.100192    0.267543   -0.383300
H     -5.484762   -1.338669   -3.450498
H      7.393186   -0.430518    1.560405
H      2.850290   -0.493130    2.603830
H      3.883012   -0.655318    4.015493
H      9.297621   -0.253464    1.166680
H      0.795393    3.715266    3.095919
H     -5.414767    0.167790    2.278991
H     -2.125070    1.254006   -2.584539
H     -3.398687    2.482308   -2.181532
H     -2.146958    0.065294   -0.762268
H     -4.675787    0.095001   -0.791849
H     -8.620385   -5.923022   -6.844113
H     12.943678    0.170455   -2.822459
H     -3.877192   -3.336403    4.988724
H     -4.377997    1.780234    1.468460
