43

C     -3.024953   -2.112270   -0.070383
C     -0.734574   -2.699800   -0.703752
C     -1.907757   -1.072637   -2.055869
C     -3.333671    3.041194    1.179747
C     -2.059158    2.798634    1.638545
C     -3.945273    2.099755    0.406317
C      4.694745    1.218667   -1.390793
C      3.466645    1.316469   -2.006031
C     -1.398573    1.637726    1.335180
C     -3.266837    0.930762    0.106681
C      4.812170    0.645438   -0.157644
C      2.374762    0.832848   -1.364777
C     -2.000162    0.652940    0.543958
C      3.679885    0.133721    0.528603
C      2.461499    0.233657   -0.087864
C     -1.193496   -0.531255    0.278805
C      3.909896   -0.451207    1.825647
C      1.228771   -0.260307    0.526522
C     -1.753868   -1.559998   -0.631129
O      3.055593   -0.939129    2.559044
O      5.215431   -0.496932    2.356050
O      1.083382   -0.804268    1.608913
O      0.053588   -0.090245   -0.220567
H     -2.864807   -3.194842    0.235095
H     -3.341935   -1.641693    0.896918
H     -3.876874   -2.137775   -0.786390
H     -0.752933   -3.322559    0.206692
H     -1.064847   -3.366361   -1.545801
H      0.264165   -2.321885   -0.955378
H     -1.067074   -1.386768   -2.709047
H     -1.868456    0.055795   -2.050124
H     -2.833083   -1.458201   -2.505012
H     -3.829468    3.991131    1.448747
H     -1.591534    3.575162    2.259354
H     -4.941160    2.288013    0.047143
H      5.568556    1.604996   -1.902549
H      3.338928    1.762289   -2.977277
H     -0.399202    1.517242    1.731360
H     -3.759154    0.204092   -0.511448
H      5.787177    0.561289    0.344343
H      1.374414    0.892881   -1.825046
H     -1.005141   -0.995156    1.306481
H      5.444378   -1.151413    3.086738
