43

C     -5.552594   -1.450163   -0.631825
C     -3.978966    2.355597    0.303747
C      5.494963   -1.509532   -1.322098
C     -2.606860    2.556344    0.275248
C      4.915445   -1.565736   -0.111060
C     -4.498935    1.102233   -0.004555
C     -0.274733   -0.853015    0.335350
C     -1.340259   -0.828871   -0.721100
C      3.752806   -0.187663    1.738025
C      2.270528   -0.297473    1.724757
C      5.573602   -0.319419   -1.950142
C     -0.331876    1.614244   -0.113453
C     -1.824911    1.480003   -0.063588
C      0.205493    0.487228    0.779690
C      4.423456   -0.468570    0.467767
C     -2.318484    0.230184   -0.372627
C     -3.684270    0.045093   -0.340224
N      1.626544    0.597530    0.799244
O     -4.178007   -1.208087   -0.649963
S      4.789175    0.835515   -0.793663
Cl     0.691481    0.000000    0.000000
H     -5.999126   -1.032664    0.304608
H     -6.075494   -0.969223   -1.472791
H     -5.775400   -2.540849   -0.668775
H     -4.674012    3.123444    0.555404
H      5.921344   -2.414820   -1.843276
H     -2.222237    3.529241    0.515449
H      4.839139   -2.551814    0.434924
H     -5.567381    0.938685    0.015720
H      0.563944   -1.484801   -0.080463
H     -0.682650   -1.470263    1.178034
H     -1.833437   -1.815299   -0.738066
H     -0.855078   -0.625393   -1.707543
H      4.197415   -0.847355    2.508316
H      4.005566    0.857106    2.067082
H      2.012977   -1.346620    1.398278
H      1.893376   -0.120796    2.740449
H      5.977622   -0.018413   -2.896761
H      0.021481    2.559032    0.292923
H      0.049187    1.387065   -1.138911
H     -0.260788    0.679375    1.780775
H      2.001434    1.548922    0.794290
H     -0.691481    0.000000    0.000000
