46

C     -4.640857   -0.096015    0.036705
C      4.011991   -1.428533    0.285413
C     -3.753844   -1.300372    0.143544
C      3.370762   -0.094060    0.581718
C     -2.537168   -1.222421    0.939146
C      1.358312    1.020447    1.484580
C      1.240181   -1.360695    0.513162
C     -1.637414    1.127945    0.663496
C      1.977336   -0.269223    1.159347
C     -1.403154   -0.340422    0.674811
C      0.751967    1.843523    0.420761
C     -0.500235    1.883499    0.084468
C      0.487640   -1.112894   -0.705597
C     -0.755018   -0.634225   -0.635990
C      1.468038    2.793696   -0.466334
C     -0.620774    2.839011   -1.004519
C      0.784153   -1.263354   -2.137161
C     -1.255956   -0.474251   -2.002574
N      0.667417    3.373095   -1.296585
N     -0.192446   -0.905759   -2.877109
O      2.823234    3.107265   -0.496390
O     -1.650407    3.213547   -1.660830
O      1.975208   -1.736149   -2.668176
O     -2.342624   -0.064345   -2.447411
H     -4.488323    0.493223   -0.885685
H     -5.729880   -0.402567   -0.036148
H     -4.623902    0.572570    0.918259
H      5.130412   -1.218604    0.325847
H      3.870791   -2.168829    1.102553
H      3.835960   -1.795495   -0.719920
H     -4.424738   -2.076546    0.674633
H     -3.662057   -1.767530   -0.860010
H      3.344748    0.439678   -0.389383
H      3.979523    0.401754    1.347902
H     -2.173661   -2.319147    1.074491
H     -2.925864   -1.077711    2.028542
H      0.725637    1.008775    2.416358
H      2.259517    1.591867    1.946302
H      0.682191   -2.026799    1.250478
H      2.067386   -2.105485    0.213142
H     -2.580964    1.302010    0.136323
H     -1.756353    1.483412    1.703644
H      2.230606   -0.701901    2.203205
H     -0.651299   -0.610978    1.489378
H      3.181961    3.983584   -0.859864
H      2.081965   -1.904593   -3.668522
