46

C     -4.910089   -0.077755   -0.490105
C      3.330752   -1.276038    1.040694
C     -3.649210   -0.178491    0.410331
C      2.754189    0.010376    0.500439
C     -2.499027   -0.129230   -0.490286
C      1.586036    1.159469   -1.403929
C      1.319211   -1.297338   -1.173945
C     -0.702665    0.892623    0.960376
C      2.124183   -0.081038   -0.847316
C     -1.114763   -0.176051    0.013520
C      0.901805    2.158010   -0.549158
C      0.015455    2.050745    0.366220
C      0.564479   -1.965094   -0.115542
C     -0.559017   -1.469343    0.448623
C      1.217897    3.607849   -0.675018
C     -0.256273    3.431200    0.849555
C      0.780553   -3.241387    0.562894
C     -1.021324   -2.405199    1.448569
N      0.546085    4.332014    0.134759
N     -0.099143   -3.482477    1.429827
O      2.133440    4.239213   -1.548633
O     -1.063845    3.810936    1.753553
O      1.837554   -4.161122    0.325604
O     -1.995861   -2.416455    2.242524
H     -5.741428    0.346475    0.085519
H     -4.651106    0.497784   -1.401811
H     -5.125722   -1.130289   -0.824112
H      4.363736   -1.127003    1.453848
H      3.374619   -1.988122    0.194404
H      2.764549   -1.715320    1.859293
H     -3.825751   -1.031805    1.040437
H     -3.746385    0.732819    1.065763
H      2.091550    0.380642    1.304869
H      3.654385    0.716292    0.471521
H     -2.561548   -0.894429   -1.323869
H     -2.592737    0.844489   -1.076326
H      0.936529    0.959769   -2.273944
H      2.474053    1.639213   -1.976653
H      0.655685   -1.047190   -2.068054
H      1.959283   -2.114320   -1.664882
H     -1.694352    1.192424    1.442572
H     -0.164926    0.491991    1.856542
H      3.092102   -0.284167   -1.489921
H     -0.507018    0.069202   -0.932186
H      2.253888    5.259509   -1.555995
H      1.750169   -5.133380    0.619430
