67

C     -5.255507    2.678164   -0.475883
C     -1.533971   -1.082859    2.720118
C     -0.450825    1.060625    1.982699
C     -4.206956   -3.253846   -2.079464
C      4.965261   -2.844536   -0.091270
C      4.887162    0.536305    1.995355
C     -5.115330    1.602356   -1.536887
C     -4.789226    0.300621   -0.813819
C      4.953787    4.087530   -0.413355
C      3.715419    4.099764    0.186048
C      5.293075    2.971169   -1.141499
C     -4.628664   -0.830708   -1.762410
C      2.864588    3.024818    0.049018
C      4.448437    1.895837   -1.281845
C      2.251996    0.758742   -0.838547
C     -1.322664   -0.096856    1.632271
C     -4.326017   -2.105200   -1.070604
C      3.722274   -1.994583    0.011042
C      3.200627    1.883804   -0.689987
C      2.308847   -0.237213    0.322563
C     -1.049854   -0.633176    0.268280
C      3.694694   -0.738115    0.331553
C     -3.023114   -2.066283   -0.278001
C      2.368866   -2.462517   -0.168828
C      0.062876   -1.528130    0.048226
N     -2.270131   -1.120174   -0.258398
N      1.463235   -1.361090    0.078969
O     -2.811687   -3.272685    0.423059
O      2.040788   -3.660792   -0.494978
O     -0.319510   -2.748237   -0.244882
O      4.848403    0.051095    0.652236
H     -6.221603    2.631345    0.034978
H     -5.108593    3.664903   -0.988756
H     -4.424786    2.578158    0.250205
H     -0.874494   -1.975234    2.570158
H     -2.570737   -1.469387    2.800491
H     -1.322092   -0.639260    3.738207
H      0.061717    1.470773    1.114606
H      0.309713    0.678002    2.714110
H     -0.996872    1.848181    2.565195
H     -3.357499   -3.119753   -2.750173
H     -4.243307   -4.239754   -1.572087
H     -5.136910   -3.192060   -2.704104
H      5.061750   -3.138014   -1.169315
H      4.734539   -3.755164    0.517735
H      5.821184   -2.290758    0.292073
H      5.786025    1.125298    2.170418
H      4.862117   -0.366094    2.639400
H      3.947655    1.102896    2.222857
H     -6.105386    1.502737   -2.023385
H     -4.381076    1.857544   -2.304149
H     -3.863300    0.489513   -0.269740
H     -5.657027    0.145383   -0.115941
H      5.632947    4.931204   -0.311035
H      3.460355    4.983286    0.755644
H      6.288543    2.988706   -1.609553
H     -3.895227   -0.605849   -2.580759
H     -5.592849   -0.998351   -2.326990
H      1.900453    3.065602    0.531347
H      4.787058    1.050168   -1.879127
H      1.246941    1.199425   -0.934320
H      2.494769    0.243068   -1.791121
H     -2.387365    0.424831    1.578100
H     -5.143047   -2.365707   -0.387268
H      2.098895    0.324004    1.260926
H     -0.816789    0.280546   -0.423732
H     -2.382578   -3.344019    1.324323
