57

C     -6.583208   -3.636814   -0.488106
C     -5.077266    3.100264    0.677028
C      7.351188   -1.276831   -0.161369
C      7.377577    0.076870    0.044466
C      6.161166   -1.888205   -0.414614
C      6.215412    0.812707   -0.005678
C      4.991502   -1.126509   -0.461277
C     -4.572620   -2.488442   -1.421538
C     -5.502647   -1.724730    0.625530
C     -3.589894   -1.496296   -1.330388
C     -4.536125   -0.772265    0.686989
C      3.373860    1.644699    0.996599
C      2.639585    0.387082   -1.048932
C      2.074930    1.322073    1.606477
C      1.610398   -0.202881   -0.104118
C     -1.425936    0.548854   -1.177300
C     -0.238224    0.706050    1.158936
C     -5.531726   -2.602757   -0.440222
C      4.975129    0.233431   -0.261694
C     -3.553041   -0.622380   -0.276554
C     -1.134824    0.025871    0.189924
C     -3.051956    1.777126    0.236297
C      3.740077    1.071725   -0.313832
C     -2.502357    0.443453   -0.111787
N      1.101750    0.850288    0.689733
O     -2.322094    2.787481    0.418204
O      4.109963    2.164578   -1.150908
O     -4.427078    1.907700    0.360342
H     -7.602322   -3.200496   -0.337716
H     -6.457196   -4.398415    0.326922
H     -6.578663   -4.099799   -1.479777
H     -6.103671    3.041198    0.196642
H     -5.213087    3.292275    1.757455
H     -4.551462    3.928344    0.137574
H      8.315128   -1.790245   -0.106517
H      8.296106    0.638275    0.256867
H      6.152857   -2.955599   -0.575320
H      6.225195    1.883946    0.155019
H      4.088826   -1.656488   -0.656468
H     -4.602226   -3.180397   -2.251765
H     -6.265601   -1.822012    1.398869
H     -2.884356   -1.451848   -2.116285
H     -4.530664   -0.089906    1.540090
H      3.506265    2.776816    1.009467
H      4.172859    1.302738    1.731410
H      3.014150   -0.402900   -1.696993
H      2.047256    1.088476   -1.708700
H      2.212129    0.576218    2.455566
H      1.725018    2.239968    2.169968
H      0.839336   -0.677839   -0.769803
H      2.016603   -0.995863    0.530855
H     -0.954785    1.536298   -1.377849
H     -1.395171   -0.119209   -2.038306
H     -0.601065    1.706938    1.473319
H     -0.217085    0.101687    2.098897
H     -0.985402   -1.097493    0.194360
H      4.657489    1.803192   -1.877534
