41

C     -1.002730   -0.542990    2.126662
C      3.837173   -1.859873    0.744855
C      2.770378    0.196275    0.696088
C     -1.818692    4.145292    0.517045
C     -0.985371    4.826445   -0.314513
C     -1.808970    2.785227    0.650890
C     -0.096106    4.077250   -1.047485
C      0.699749   -1.232723   -1.204779
C      1.697425   -1.771066   -0.243606
C     -2.035144   -2.843871    0.404105
C     -3.163161   -3.424453   -1.458355
C     -1.650286   -0.270860    0.790618
C     -0.903349    1.975834   -0.090981
C     -0.094284    2.699583   -0.905498
C      0.163591    0.045138   -0.860782
C     -2.113124   -1.457940    0.119754
C     -0.762015    0.625268   -0.077844
N     -2.591460   -3.615618   -0.461263
N      2.912028   -1.023761   -0.069138
S     -3.051952   -1.528697   -1.476719
S      0.897865    1.454074   -1.680128
H     -0.265871    0.252388    2.314068
H     -1.828385   -0.511148    2.896661
H     -0.591347   -1.555702    2.230317
H      3.791995   -2.900065    0.417766
H      3.542925   -1.684395    1.792796
H      4.834416   -1.380896    0.570063
H      3.387278    0.167826    1.652463
H      3.199840    1.087290    0.166012
H      1.748422    0.347551    1.062725
H     -2.523973    4.734375    1.097993
H     -0.975387    5.890322   -0.435597
H     -2.517838    2.364716    1.340986
H      0.616505    4.532273   -1.746629
H     -0.049295   -2.041878   -1.374367
H      1.245200   -1.240468   -2.218335
H      1.267255   -1.872748    0.802771
H      1.999792   -2.824452   -0.477952
H     -1.507267   -3.121152    1.340864
H     -3.701053   -3.859461   -2.330065
H     -2.574777    0.357089    1.064048
