41

C      3.759310   -0.740079    0.189974
C      2.496059    1.502738    1.145200
C     -2.475504   -0.892098   -1.284413
C     -2.303818   -1.770677    0.947253
C      0.255102    1.393964   -1.395083
C     -1.807728    1.893260    0.505783
C      1.661613   -1.540743   -0.999991
C      0.171279   -1.601465   -0.854502
C     -2.545604    0.613728    0.622683
C     -0.373925    1.729372    0.928097
C      2.308110   -0.523165   -0.159414
C      1.721911    0.567272    0.314336
C     -0.385206   -0.555924    0.079326
C     -1.864812   -0.586940    0.060591
C      0.276520    0.770064   -0.042550
H      3.936202   -0.416212    1.237481
H      3.993009   -1.818888    0.085689
H      4.420019   -0.208026   -0.528511
H      2.138289    2.530373    1.161149
H      2.547908    1.123410    2.204128
H      3.549815    1.530114    0.788111
H     -2.593714   -1.993916   -1.456602
H     -3.526789   -0.490268   -1.294456
H     -1.963151   -0.479268   -2.137228
H     -2.380985   -2.693749    0.364031
H     -1.569206   -1.938489    1.758684
H     -3.278484   -1.574226    1.410633
H     -0.713075    1.543181   -1.850422
H      0.985556    0.856621   -2.045570
H      0.707508    2.423790   -1.271928
H     -2.264962    2.606593    1.256383
H     -1.924379    2.415611   -0.466411
H      1.969102   -1.329378   -2.062280
H      2.130941   -2.523523   -0.767982
H     -0.267406   -1.575581   -1.863734
H     -0.089831   -2.592914   -0.427299
H     -2.817649    0.468508    1.709845
H     -3.548544    0.758751    0.121993
H      0.129954    2.727747    0.943414
H     -0.397713    1.298916    1.962264
H     -0.065723   -0.908485    1.111334
