41

C     -0.333107   -1.898891   -0.989230
C      4.247676   -1.030407    1.782837
C      4.659101   -1.298811   -0.504464
C     -3.130498    3.156982   -1.076955
C     -2.661742    4.201075   -0.332999
C     -2.546720    1.930145   -1.051143
C     -1.567922    3.963455    0.449589
C      1.408819   -0.519614    1.055618
C      2.603109   -0.370761    0.145846
C     -3.748443   -1.229240   -0.309940
C     -4.215619   -2.257860    1.574961
C     -1.230201   -0.768689   -0.835223
C     -1.406543    1.637123   -0.250752
C     -0.971834    2.692574    0.469422
C      0.351961    0.399645    0.679365
C     -2.449025   -1.254033   -0.099342
C     -0.711614    0.466377   -0.125612
N     -4.519167   -1.776006    0.626454
N      3.648687   -1.314591    0.516330
S     -2.332093   -2.083066    1.481233
S      0.435234    2.157625    1.380024
H      0.621595   -1.611199   -1.449136
H     -0.273829   -2.645087   -0.173404
H     -0.764700   -2.574401   -1.842591
H      5.341770   -0.911664    1.696007
H      4.119022   -1.934681    2.447944
H      3.851838   -0.144308    2.302735
H      5.539005   -1.895273   -0.180937
H      5.002443   -0.236657   -0.621621
H      4.261317   -1.662270   -1.463955
H     -3.991635    3.328623   -1.700096
H     -3.151433    5.157426   -0.381095
H     -2.993775    1.177903   -1.688040
H     -1.135063    4.720658    1.059795
H      1.165252   -1.561255    1.213057
H      1.812115   -0.197699    2.073432
H      3.042104    0.645887    0.368266
H      2.437010   -0.430361   -0.914013
H     -4.208763   -0.788567   -1.209760
H     -4.553225   -2.822804    2.602752
H     -1.651111   -0.417300   -1.814285
