41

C     -1.463250   -0.288172   -2.071099
C      3.917545   -0.131235   -2.125448
C      4.252191   -0.174722    0.187920
C     -2.804354    2.911220    0.631944
C     -2.107334    3.707904    1.512376
C     -2.338465    1.709319    0.162846
C     -0.883515    3.231301    1.914801
C      1.646392   -1.401979    0.520216
C      2.400390   -1.341921   -0.792355
C     -3.388688   -1.954008   -0.977964
C     -3.708348   -2.005836    1.679115
C     -1.117766   -0.942341   -0.768813
C     -1.077175    1.203090    0.568019
C     -2.389513   -1.489393   -0.130678
C     -0.417159    2.010278    1.434268
C      0.741838   -0.245829    0.721814
C     -0.487774    0.048118    0.200900
N     -2.599619   -1.539800    1.127312
N      3.224268   -0.131402   -0.851276
S     -4.652534   -2.467097    0.195179
S      1.076991    1.143183    1.757523
H     -1.123369    0.789831   -1.983620
H     -2.522624   -0.284833   -2.316742
H     -0.866250   -0.791658   -2.881702
H      4.913290    0.323794   -1.987780
H      4.112348   -1.191698   -2.446265
H      3.343769    0.403097   -2.897660
H      3.826610   -0.018869    1.199054
H      5.068578    0.531982   -0.022727
H      4.700052   -1.205105    0.111958
H     -3.789111    3.296677    0.309416
H     -2.483832    4.649425    1.873095
H     -2.979736    1.172925   -0.521583
H     -0.230680    3.747931    2.599604
H      2.335359   -1.420990    1.378237
H      1.029547   -2.307579    0.585151
H      1.746483   -1.392511   -1.675394
H      3.075954   -2.213568   -0.828296
H     -3.447422   -2.018650   -2.018319
H     -4.056969   -2.124649    2.693459
H     -0.476118   -1.796229   -0.938732
