44

C     -0.002379   -1.381021   -1.377039
C      4.071499   -1.596934   -1.033937
C      5.111469    0.307396    0.023109
C     -3.473878    2.918033    0.252928
C     -2.976415    4.001739    0.926212
C     -4.013250   -2.616920   -0.008101
C     -2.727496    1.818756   -0.053143
C     -3.093869   -1.775931   -0.587100
C     -1.655505    3.926557    1.287151
C      2.052155    0.134955    0.455350
C     -3.817237   -3.139512    1.243271
C      2.843720    0.475636   -0.784935
C     -0.955196   -0.563742   -0.623210
C     -1.910849   -1.413312    0.075948
C     -1.362514    1.713618    0.307371
C     -0.895817    2.777771    0.961202
C      0.774458    0.805779    0.495516
C     -0.494923    0.669532    0.057924
C     -1.785577   -1.973672    1.320466
Cl    -0.362158   -1.563357    2.222189
N     -2.696414   -2.801096    1.881762
N      4.107423   -0.193172   -0.850000
S      0.772071    2.410887    1.274451
H     -0.584819   -2.250801   -1.881134
H      0.669903   -1.950068   -0.728129
H      0.440350   -0.913499   -2.270799
H      4.807677   -2.044076   -0.302888
H      3.099676   -2.086625   -0.810790
H      4.466381   -1.849912   -2.035916
H      6.105819    0.001669   -0.413908
H      5.057844   -0.060470    1.055707
H      5.097853    1.414339   -0.029568
H     -4.509935    2.940020   -0.050005
H     -3.563886    4.876253    1.169959
H     -4.927214   -2.873973   -0.565815
H     -3.214407    1.022485   -0.597748
H     -3.317245   -1.393817   -1.596435
H     -1.129892    4.685545    1.809474
H      2.718474    0.531409    1.295324
H      2.078899   -0.948026    0.685728
H     -4.548081   -3.812983    1.715812
H      2.249410    0.307160   -1.667953
H      3.089263    1.573868   -0.752295
H     -1.595387   -0.110490   -1.496006
