47

C      1.057562   -0.148343   -2.365806
C      0.716740   -0.839134    2.107343
C     -4.960776   -1.279891    0.019071
C     -3.248103   -2.993051   -0.157435
C      2.753468    3.460089    0.389813
C      2.040381    4.581962    0.705982
C      4.049270   -1.787196   -0.233712
C      2.191390    2.269105    0.019138
C      2.989527   -1.198414   -0.853280
C      0.670667    4.481086    0.640126
C     -2.332683    0.153364   -0.745608
C      4.037072   -2.076576    1.127578
C     -2.630016   -0.718548    0.440433
C      0.731265   -0.291625   -0.876017
C      1.845381   -1.150115    1.191156
C      1.821611   -0.852280   -0.142876
C      0.780124    2.141798   -0.055267
C      0.112643    3.252629    0.258886
C     -1.290225    1.129532   -0.411405
C      0.127622    1.008768   -0.409694
N      2.918915   -1.741048    1.795339
N     -3.637804   -1.695166    0.212062
S     -1.577488    2.770408    0.070453
H      1.795759    0.626643   -2.556810
H      0.083858    0.214029   -2.818988
H      1.246559   -1.135272   -2.825136
H      1.102107   -0.675275    3.138248
H      0.110319   -1.780724    2.190620
H      0.146792    0.037839    1.824622
H     -5.133266   -0.313644   -0.484646
H     -5.506902   -1.281981    1.010061
H     -5.495007   -2.083065   -0.558766
H     -2.284739   -3.080612   -0.679625
H     -3.229777   -3.672325    0.726302
H     -4.019790   -3.413275   -0.851331
H      3.837833    3.552358    0.445693
H      2.475682    5.511480    0.995238
H      4.941947   -2.055400   -0.783369
H      2.843171    1.475413   -0.201429
H      3.025463   -0.980949   -1.896103
H     -0.005113    5.275034    0.858609
H     -1.929129   -0.452568   -1.593881
H     -3.273703    0.640863   -1.091888
H      4.891666   -2.547307    1.597733
H     -1.701703   -1.166531    0.803800
H     -3.006631   -0.092418    1.312606
H     -0.081940   -1.079665   -0.888595
