48

C     -0.169913   -1.626182    0.403911
C     -4.038966   -2.644566    0.067458
C     -5.335042   -1.054385   -1.070028
C      3.759632   -1.583831    2.803316
C      2.072060    3.752720    0.590441
C      1.419111    4.750353   -0.075119
C      4.354060   -0.807280   -1.242735
C      1.575852    2.475450    0.594487
C      4.177950   -1.068232    0.096658
C      0.241159    4.426292   -0.743178
C     -2.366524   -0.315229   -1.086016
C      3.264408   -0.398113   -1.975055
C     -3.352478   -0.319239    0.087458
C      0.472642   -0.323653    0.534377
C      0.386885    2.092441   -0.066949
C      2.909154   -0.909752    0.660468
C     -0.218203    3.118194   -0.707924
C     -1.346989    0.714442   -0.807969
C     -0.216141    0.856291   -0.135372
C      1.838038   -0.497603   -0.101486
N      2.045061   -0.252852   -1.401072
N     -4.389892   -1.270457   -0.024991
O      2.684131   -1.158305    1.990488
S     -1.664867    2.375741   -1.430996
H     -0.002744   -2.061124   -0.616485
H     -1.118457   -1.836839    0.857507
H      0.540103   -2.332773    1.021029
H     -3.519918   -3.042719   -0.830193
H     -5.011009   -3.220392    0.105668
H     -3.524731   -2.920835    1.012107
H     -5.452567   -1.948229   -1.754472
H     -5.138028   -0.132090   -1.650262
H     -6.333468   -0.927110   -0.606371
H      4.325266   -2.394599    2.303511
H      4.426946   -0.695777    2.944327
H      3.398151   -1.969049    3.789883
H      3.010200    3.985219    1.132271
H      1.819726    5.743466   -0.070435
H      5.349675   -0.932737   -1.684599
H      2.158798    1.759642    1.156289
H      5.030076   -1.393259    0.683055
H     -0.339394    5.130896   -1.292184
H     -3.015642    0.014887   -1.952518
H     -2.002982   -1.314878   -1.228106
H      3.390616   -0.191170   -3.024772
H     -2.867188   -0.353026    1.072819
H     -3.879224    0.696978    0.101246
H      0.654669    0.003272    1.570512
