42

C     -3.959243   -1.281313    0.085300
C      3.443900    0.304350    1.194231
C     -5.242890   -0.785796    0.336939
C      4.699824    0.894202    1.181259
C     -3.196238    0.923167   -0.260588
C      3.720121   -0.334509   -1.051915
C      0.027357   -2.084032    1.018529
C      0.040610    0.436017   -1.222571
C     -2.923282   -0.423735   -0.216567
C      2.935770   -0.316939    0.082650
C     -0.648602   -0.791147    0.687712
C      0.483560    0.054508    0.148086
C     -5.496636    0.568089    0.288017
C      5.456215    0.854608    0.021029
C     -4.464406    1.429559   -0.013309
C      4.969150    0.230967   -1.126507
C     -1.555595   -0.967805   -0.483244
C      1.605607   -0.951521    0.067600
O     -6.780364    1.021415    0.542991
O      6.718291    1.424862   -0.057634
O     -4.667431    2.800886   -0.075083
O      5.749443    0.203929   -2.283088
O     -1.005947   -0.367855   -1.588988
O      1.363685   -1.730441    1.197585
H     -3.782970   -2.357271    0.129922
H      2.845614    0.327097    2.086924
H     -6.045894   -1.473384    0.572718
H      5.099549    1.384878    2.061331
H     -2.376645    1.592013   -0.498559
H      3.344080   -0.821962   -1.955288
H     -0.012909   -2.738978    0.111440
H     -0.401039   -2.591838    1.905984
H      0.889134    0.205309   -1.932549
H     -0.139190    1.522835   -1.355285
H     -1.140676   -0.318537    1.561417
H      0.720222    0.913855    0.802550
H     -1.668022   -2.052306   -0.696805
H      1.469852   -1.558985   -0.825800
H     -7.068106    1.973116    0.533369
H      7.184489    1.898670    0.681407
H     -5.537767    3.244761    0.087044
H      5.347382   -0.260740   -3.083991
