47

C     -8.744548   -1.290573   -0.918703
C      1.394017    0.489097   -0.049052
C      2.053576   -0.782848   -0.379836
C     -0.034847    0.564267   -0.604821
C      3.391180   -0.985578    0.199208
C     -0.919644   -0.507448   -0.064503
C      4.527183   -0.092844   -0.061178
C     -2.324082   -0.424655   -0.625084
C      4.515996    1.304056    0.410203
C     -3.015052    0.830018   -0.348226
C      5.851544    2.002239    0.029579
C     -4.146996    0.884543    0.331183
C      6.909920    1.221424    0.701919
C     -4.859839   -0.218812    0.888756
C      7.873947    0.618616    0.041965
C     -5.865880   -0.985410    1.576863
C     -7.233381   -1.113968    1.009666
Br     9.220961   -0.379540    0.949990
Br     7.920673    0.747523   -1.862012
N     -4.761519   -1.687998    1.005689
O     -8.240414   -1.177594    1.757226
O     -7.437746   -1.167201   -0.352267
H     -9.438381   -0.539649   -0.477813
H     -8.661396   -1.056322   -2.004442
H     -9.129886   -2.328286   -0.845543
H      1.491768    0.768272    0.981527
H      1.904562    1.289078   -0.683684
H      1.429046   -1.675143   -0.023068
H      2.130119   -0.943665   -1.498488
H     -0.389510    1.582334   -0.409797
H      0.024698    0.448018   -1.705983
H      3.222497   -0.931246    1.345114
H      3.724349   -2.078582    0.079259
H     -0.532938   -1.501322   -0.434646
H     -0.931415   -0.574426    1.035246
H      5.475138   -0.564331    0.373128
H      4.778525   -0.090821   -1.172857
H     -2.871196   -1.278735   -0.206014
H     -2.263062   -0.639368   -1.733214
H      4.515281    1.368736    1.530560
H      3.751832    1.965514    0.057238
H     -2.612839    1.797886   -0.700380
H      5.807919    3.028370    0.391039
H      5.998985    1.982341   -1.065774
H     -4.544697    1.920270    0.454385
H      6.874026    1.152729    1.797897
H     -5.828476   -0.948966    2.700445
