42

C     -4.761777    1.556566    0.104396
C      4.977449    0.678891   -0.648941
C     -3.250948    1.376614    0.140654
C      3.599932    0.211820   -1.086818
C     -0.684057   -0.638268   -1.188761
C      0.793427   -0.843547   -0.767113
C     -3.467802   -1.079388    0.619968
C      3.070092   -0.225286    1.268098
C     -2.845968   -0.019839   -0.265072
C      2.641153    0.502828    0.047268
N     -1.432679   -0.163637   -0.102067
N      1.273791    0.423728   -0.336491
O     -2.994361   -2.328742    0.195535
O      2.888018   -1.589073    1.242584
Cl     0.689406    0.000000    0.000000
Cl     0.684079    0.000000    0.000000
H     -4.947903    2.643260    0.010939
H     -5.201980    1.251049    1.104287
H     -5.247279    1.056978   -0.747796
H      5.561134   -0.139190   -0.203047
H      5.536508    1.179042   -1.471251
H      4.894379    1.468583    0.157628
H     -2.857852    2.099734   -0.639283
H     -2.881684    1.688341    1.112420
H      3.705429   -0.860230   -1.296727
H      3.336096    0.798657   -2.010635
H     -1.076542   -1.570392   -1.650189
H     -0.698500    0.120289   -2.016718
H      1.288612   -1.298581   -1.622257
H      0.699809   -1.612606    0.048572
H     -4.568669   -1.133457    0.510193
H     -3.169184   -0.980203    1.658709
H      4.185632   -0.045125    1.352981
H      2.628642    0.180388    2.205620
H     -3.118354   -0.207348   -1.306592
H      2.817391    1.602266    0.266288
H     -1.120976   -0.437098    0.809511
H      0.669397    0.756742    0.440329
H     -3.305974   -2.427129   -0.762800
H      3.065599   -1.996637    0.353117
H     -0.689406    0.000000    0.000000
H     -0.684079    0.000000    0.000000
