44

C      0.236226   -2.499050    1.823418
C      2.789142    0.006589   -1.716094
C     -1.810486   -1.799531    0.731138
C     -2.263013   -0.903679   -0.404107
C      1.879132   -1.323607    0.126703
C      1.364700    0.961035    0.095293
C     -3.072789    1.279629   -1.044480
C     -0.928332    2.545999   -0.137324
C      3.676621    0.264061    0.621795
C     -0.371753   -2.103104    0.496253
C     -2.284712    0.548467    0.012520
C      0.409123   -1.087224   -0.246180
C      0.199015    0.320965    0.097970
C     -1.013834    1.127346    0.428462
C      2.456264   -0.000998   -0.260195
O     -4.386746    0.747191   -1.106695
O     -0.980365    2.585277   -1.515597
O      4.258730    1.478893    0.371751
H      1.057214   -3.197787    1.658574
H     -0.566728   -3.094367    2.352636
H      0.449676   -1.652001    2.482415
H      2.616474   -0.976914   -2.205748
H      2.200823    0.807229   -2.202976
H      3.861040    0.255059   -1.917167
H     -2.379797   -2.754493    0.718192
H     -2.018052   -1.346180    1.720846
H     -3.275125   -1.249471   -0.697541
H     -1.629548   -1.022681   -1.304324
H      2.021645   -1.462568    1.199937
H      2.302242   -2.135993   -0.498928
H      1.640600    1.986959    0.295069
H     -3.200250    2.344042   -0.888941
H     -2.659854    1.077082   -2.053571
H     -1.761584    3.154172    0.293505
H     -0.009696    3.067629    0.187395
H      4.384111   -0.580343    0.577173
H      3.294003    0.284326    1.674219
H     -0.333737   -3.045877   -0.130498
H     -2.977714    0.558351    0.912012
H      0.385919   -1.244422   -1.365747
H     -0.979879    1.262785    1.529466
H     -5.035274    1.344964   -0.664676
H     -1.264773    3.493549   -1.781535
H      3.721341    1.978686   -0.289827
