44

C     -0.516345    1.803636    2.033615
C      2.553776   -1.839143    1.644843
C     -1.224810    2.224727   -0.344098
C     -2.333040    1.285630   -0.112014
C      1.814067    0.515452    1.233216
C      1.181617   -1.188712   -0.219697
C     -3.351835   -0.764174   -0.839329
C     -1.024080   -1.766889   -1.821668
C      3.600225   -0.537211   -0.212745
C     -0.075740    2.042513    0.603785
C     -2.080907   -0.154923   -0.376913
C      0.912417    1.020149    0.149092
C      0.361912   -0.183458   -0.463806
C     -0.884464   -0.428523   -1.257597
C      2.367413   -0.740018    0.591491
O     -4.333071   -0.609486    0.169435
O     -0.022885   -2.219271   -2.662223
O      3.503692    0.435431   -1.180100
H     -1.278866    2.584781    2.262795
H      0.368723    2.083139    2.678634
H     -0.829994    0.787838    2.244062
H      1.530328   -2.038136    2.048571
H      2.833386   -2.752635    1.082329
H      3.268607   -1.548338    2.414324
H     -0.814450    2.239303   -1.365477
H     -1.649949    3.263594   -0.199509
H     -2.672426    1.409125    0.951572
H     -3.220649    1.646533   -0.713117
H      2.628409    1.223676    1.486213
H      1.223332    0.223170    2.125531
H      1.015272   -2.231492   -0.569223
H     -3.331441   -1.844082   -1.034512
H     -3.777216   -0.282094   -1.742826
H     -1.111180   -2.544883   -1.032996
H     -1.937210   -1.758624   -2.494531
H      3.945657   -1.506170   -0.631147
H      4.426405   -0.233953    0.488960
H      0.420235    3.058161    0.650614
H     -1.830833   -0.649790    0.609579
H      1.598708    1.586356   -0.560533
H     -0.895477    0.332892   -2.066170
H     -4.158112   -1.224764    0.927181
H     -0.151559   -1.981284   -3.607799
H      3.952358    1.261945   -0.887814
