40

C     -0.746552    2.981626   -0.488537
C      2.567894    0.230444    1.597052
C      3.306940   -0.521780   -0.651114
C     -1.201251    1.215710    1.215276
C     -2.199773    0.140392    1.429155
C      1.471945    1.133228   -0.478781
C     -1.897025   -2.468294   -1.143963
C      1.060053   -1.139553    0.265097
C     -0.999186    1.510927   -0.233726
C     -2.218389   -0.943338    0.450163
C      0.078815    0.734734   -0.898035
C     -1.314396   -1.298695   -0.437901
C     -3.389228   -1.816442    0.383615
C      2.110783   -0.058890    0.183308
C     -0.012025   -0.754819   -0.748626
O     -4.443065   -1.781868    1.072408
O      0.410077   -1.309975   -1.961395
O     -3.146266   -2.742463   -0.612956
H      0.009821    3.362520    0.195311
H     -0.417863    3.047017   -1.567300
H     -1.706139    3.534248   -0.453343
H      3.459443   -0.414271    1.814059
H      2.841372    1.294165    1.741229
H      1.790744   -0.094323    2.317694
H      4.175001   -0.668612    0.024963
H      3.623564    0.302073   -1.354106
H      3.064362   -1.392393   -1.263681
H     -0.289035    0.966979    1.767412
H     -1.587106    2.151992    1.677891
H     -2.056770   -0.311871    2.434346
H     -3.209460    0.607527    1.447300
H      2.112712    1.470640   -1.320596
H      1.487482    1.957805    0.256631
H     -1.257912   -3.383260   -0.990973
H     -1.972198   -2.212399   -2.216686
H      0.596436   -1.227949    1.251092
H      1.546013   -2.095430    0.021999
H     -1.958002    1.270204   -0.758352
H      0.015354    1.014662   -1.983719
H      0.292829   -2.290268   -1.982213
