44

C     -0.250462   -2.498377    1.322254
C     -2.462670    1.102849   -1.870277
C     -3.628762    1.426796    0.345380
C      1.256031   -2.095112   -0.563672
C     -2.279327   -0.649966   -0.073482
C     -1.207975    1.381906    0.278049
C      1.316200    2.097991    1.304200
C      2.220691    0.633224   -1.343967
C     -0.171117   -2.021735   -0.088177
C     -0.818167   -0.730588   -0.383823
C     -0.265585    0.453865    0.286180
C      1.072816    0.693873    0.910399
C      2.178270    0.171782    0.064298
C      2.232141   -1.320116    0.246768
C     -2.463595    0.857685   -0.402822
O      0.379022    2.494986    2.249162
O      3.324326    0.029732   -1.957340
O      3.540229   -1.724769    0.021091
H     -1.047273   -3.293202    1.428741
H     -0.446762   -1.681282    2.047156
H      0.688556   -3.033623    1.570883
H     -2.884833    0.219423   -2.388917
H     -3.081841    2.011706   -2.065791
H     -1.412902    1.259972   -2.210302
H     -3.326951    1.596352    1.414926
H     -3.905806    2.380085   -0.130230
H     -4.496577    0.725335    0.404342
H      1.554537   -3.167878   -0.511720
H      1.339546   -1.832797   -1.654189
H     -2.503381   -0.740445    1.012546
H     -2.918328   -1.263752   -0.711013
H     -1.198791    2.412243    0.663807
H      2.308264    2.124289    1.841063
H      1.363650    2.795268    0.442161
H      2.477113    1.730213   -1.321756
H      1.312612    0.554176   -1.930343
H     -0.713697   -2.791441   -0.719178
H     -0.736532   -0.536481   -1.488107
H      1.141784    0.093071    1.879998
H      3.134604    0.564265    0.545531
H      2.005686   -1.497780    1.337696
H      0.290636    3.490071    2.218113
H      3.103630   -0.336185   -2.846162
H      3.980993   -2.085628    0.826525
