75

C     -4.393351   -1.242445    0.539037
C      2.398246   -3.835508   -2.798301
C      5.248602   -4.575805    3.122353
C      1.447977    2.857758   -1.323648
C      0.797707    3.838738    0.795296
C     -4.564903    2.125313   -1.265615
C      0.394126    3.593213   -1.882127
C     -0.260552    4.565716    0.109400
C     -4.859897    3.444226   -0.979183
C      2.119947    0.170157    4.494939
C     -2.189833   -2.966917   -1.780365
C      1.594274    1.337093    4.281253
C     -3.505273   -2.310152   -1.405309
C      2.539773    2.074472    0.792457
C     -3.219004    0.214876   -1.773248
C     -2.341247    2.643972   -2.041235
C      0.145538   -2.687659   -1.963596
C      3.283131   -1.699010    3.633769
C      0.141530   -0.237495   -0.407067
C      1.627402    2.987850    0.082631
C     -3.310055    1.692195   -1.788139
C     -1.051182   -2.034470   -1.536056
C      2.566590   -0.524016    3.342508
C     -0.404329    4.377840   -1.184498
C     -1.093424   -0.890599   -0.829194
C      1.924971    1.189857    1.947000
C     -2.462810   -0.361412   -0.585646
C     -3.793850    4.366987   -1.244753
C     -2.675420    3.915356   -1.727173
C      1.299799   -2.046639   -1.562861
C      1.274083   -0.887038   -0.806132
C      3.884230   -2.432239    2.657295
C      2.475976   -0.094514    2.097478
C      3.699760   -1.906692    1.291559
C      2.996425   -0.796313    1.021560
N      1.459632    1.951898    2.950503
N     -3.319611   -1.545272   -0.288155
O     -4.169986    5.691114   -0.923216
O      4.366416   -2.698683    0.347042
O      2.468758   -2.685400   -2.021267
O      4.565158   -3.498286    2.841813
O     -1.570559    4.993691   -1.902891
O      2.673538   -0.379959   -0.377397
H     -4.021104   -0.534330    1.377710
H     -4.744497   -2.116704    1.183959
H     -5.327621   -0.825054    0.068075
H      1.631893   -4.527159   -2.408001
H      2.153958   -3.592688   -3.874170
H      3.366540   -4.392677   -2.857041
H      4.832348   -5.350542    3.855815
H      5.706863   -5.116633    2.198870
H      6.189566   -4.271234    3.716230
H      1.986570    2.270126   -2.079774
H      0.739644    4.197566    1.845071
H     -5.373293    1.405999   -1.058953
H      0.434949    3.456919   -3.034100
H     -0.782469    5.278229    0.835761
H     -5.795570    3.767433   -0.613737
H      2.207241   -0.341516    5.429481
H     -2.157081   -3.509760   -2.729442
H     -2.056497   -3.741563   -0.916124
H      1.149894    2.020056    5.003977
H     -3.839301   -1.783883   -2.345624
H     -4.313254   -3.112771   -1.309853
H      3.317407    2.685831    1.419101
H      3.244782    1.457195    0.267178
H     -4.288906   -0.208446   -1.584212
H     -2.988243   -0.326168   -2.701109
H     -1.429431    2.310569   -2.630058
H      0.036056   -3.557541   -2.526957
H      3.398573   -2.072365    4.658654
H      0.133516    0.715873    0.132338
H     -2.565202    0.160635    0.353048
H     -3.513611    6.448937   -1.020733
H      4.457978   -2.490133   -0.606201
