79

C     -2.984382   -3.881272    1.073679
C      0.343941   -2.043809   -3.808003
C      5.202793   -0.667255    4.638544
C      1.252522    2.749868   -0.852022
C      0.187551    1.593704   -2.643074
C     -4.749582    1.495287    1.955771
C     -0.023238    3.298560   -0.496310
C     -1.040989    2.171626   -2.239217
C     -4.453236    2.819612    2.186695
C      5.671976    1.512474    0.116202
C     -3.927867   -2.295099   -1.437973
C      5.943481    1.040561   -1.283458
C     -4.684427   -3.065144   -0.430470
C      2.629054    1.228891   -2.330833
C     -4.683872   -0.667056    0.950427
C     -3.548230    1.418441   -0.125035
C     -1.566903   -1.930819   -1.919272
C      4.845047    0.273189    2.044160
C     -1.079447   -1.009326    0.680278
C      1.345823    1.890346   -1.928186
C     -4.322533    0.768799    0.833925
C     -2.563593   -1.888412   -0.965461
C      4.607389    0.700851    0.773160
C     -1.137830    3.008729   -1.172052
C     -2.330109   -1.430185    0.349693
C      3.609002    1.023147   -1.295282
C     -3.568851   -1.612343    1.171336
C     -3.676568    3.439721    1.225473
C     -3.242182    2.741670    0.108988
C     -0.327886   -1.502465   -1.529282
C     -0.014521   -1.029302   -0.246791
C      3.854646   -0.479549    2.594490
C      3.433006    0.421222    0.016083
C      2.682747   -0.774580    1.873840
C      2.416963   -0.346538    0.576766
N      4.812455    0.314590   -1.833559
N     -4.063958   -2.964713    0.839590
O     -3.387697    4.770772    1.473644
O      1.841963   -1.563164    2.665283
O      0.655725   -1.574495   -2.546566
O      4.060917   -0.936103    3.892375
O     -2.426808    3.564770   -0.742862
O      1.264510   -0.661698   -0.056770
H     -3.132770   -4.814749    0.477371
H     -1.982295   -3.503400    0.790933
H     -2.909486   -4.170667    2.148524
H     -0.488117   -1.441821   -4.246552
H     -0.035472   -3.093600   -3.790465
H      1.205254   -1.948071   -4.496880
H      6.090017   -0.954706    4.021165
H      5.251814    0.392925    4.960795
H      5.207842   -1.366707    5.508345
H      2.029176    3.173808   -0.156007
H      0.000484    0.947970   -3.556885
H     -5.374214    1.031981    2.748112
H      0.138621    3.975871    0.393959
H     -1.837052    1.830968   -2.953631
H     -4.810038    3.330771    3.064223
H      5.423517    2.578610    0.154907
H      6.601498    1.390682    0.705823
H     -3.790189   -2.997734   -2.319759
H     -4.453313   -1.438624   -1.911298
H      6.804341    0.344276   -1.279991
H      6.183902    1.898857   -1.905483
H     -4.709308   -4.178903   -0.654405
H     -5.785248   -2.823046   -0.411752
H      2.591728    0.272152   -2.890186
H      3.120031    1.872829   -3.188193
H     -5.425811   -0.920725    0.187946
H     -5.318281   -0.834695    1.892924
H     -3.253163    0.893742   -1.094660
H     -1.784870   -2.292109   -2.923444
H      5.752059    0.501775    2.602444
H     -0.824129   -0.567087    1.722271
H      4.054883    2.101438   -1.178312
H     -3.454649   -1.736639    2.268747
H      4.795754   -0.682423   -1.535040
H     -3.731555    5.214050    2.297246
H      0.992240   -1.910506    2.389283
