44

C      0.312859    2.507666    1.156867
C     -2.707075   -0.734310   -1.826919
C     -3.829553   -0.247628    0.278169
C      1.824183    2.061292   -0.691222
C      2.247278    0.652220   -1.042331
C     -1.909504    1.198505   -0.447415
C      3.516252   -0.964126    0.269177
C      1.094224   -2.096360    1.114818
C      0.373173    2.148684   -0.313756
C      2.310531   -0.098336    0.257109
C     -0.442592    0.980559   -0.687327
C      1.006882   -0.810626    0.432099
C     -0.154994   -0.285689    0.013751
C     -1.436977   -0.975613    0.256244
C     -2.513411   -0.187449   -0.431158
O      3.453415   -1.858505   -0.780980
O     -0.046672   -2.802525    1.341669
O     -1.784293   -0.958064    1.618118
H     -0.483340    3.281189    1.352566
H      1.265321    3.018066    1.470355
H      0.208716    1.636185    1.813872
H     -3.496246   -1.513996   -1.843490
H     -3.027707    0.122432   -2.473472
H     -1.742614   -1.115099   -2.247758
H     -4.526502    0.530510   -0.084979
H     -4.293954   -1.235775    0.175905
H     -3.664823   -0.017747    1.362303
H      2.051471    2.686784   -1.579067
H      2.456976    2.439621    0.131184
H      3.260960    0.651094   -1.512874
H      1.584801    0.181465   -1.787800
H     -2.134347    1.750039    0.483651
H     -2.415548    1.749159   -1.268721
H      4.389072   -0.303444    0.076998
H      3.718316   -1.450226    1.244727
H      1.707195   -2.769489    0.435869
H      1.629188   -2.013946    2.099189
H     -0.035720    3.035317   -0.846493
H      2.408237    0.602381    1.139397
H     -0.336532    0.810486   -1.780315
H     -1.498587   -1.992902   -0.191095
H      4.300045   -2.311876   -0.984977
H     -0.138682   -3.658639    0.874342
H     -2.499422   -1.641282    1.732785
