75

C     -4.781932    3.737755   -0.685112
C      2.434011    2.114026   -3.363169
C      4.582186    0.111720    5.193057
C      1.089482   -3.199660   -0.535202
C      0.362389   -2.179377   -2.564878
C     -4.650340   -0.560168    1.266712
C     -0.260299   -3.583757   -0.195531
C     -0.969155   -2.580371   -2.193467
C     -4.625104   -1.809200    1.802349
C      5.718737   -2.154567    1.087944
C     -2.096528    3.649190   -2.126725
C      5.810295   -2.722875   -0.138567
C     -2.523826    4.391058   -0.840924
C      2.734447   -1.955340   -1.926420
C     -4.243806    1.269260   -0.230410
C     -3.394495   -1.133512   -0.686066
C     -0.033432    2.369013   -2.128228
C      4.564429   -0.901781    2.657558
C     -0.845106    0.807772    0.069019
C      1.365122   -2.508425   -1.687531
C     -4.057050   -0.167773    0.034083
C     -1.260013    2.523086   -1.537916
C      4.560412   -1.405280    1.383913
C     -1.226134   -3.238475   -1.053375
C     -1.719543    1.767334   -0.432895
C      3.686914   -1.854232   -0.782688
C     -3.056716    2.165867    0.057616
C     -3.931567   -2.748657    1.027964
C     -3.350336   -2.407517   -0.148114
C      0.805609    1.429050   -1.617179
C      0.437934    0.633642   -0.521123
C      3.477564   -0.186437    3.032427
C      3.542693   -1.258342    0.428496
C      2.453993   -0.005125    2.139443
C      2.391280   -0.481178    0.843698
N      4.852945   -2.589262   -1.037087
N     -3.438735    3.502898   -0.219009
O     -3.911113   -4.048821    1.600008
O      1.387531    0.755342    2.690325
O      2.020491    1.367325   -2.293504
O      3.453971    0.349686    4.347988
O     -2.658597   -3.524004   -0.775226
O      1.376422   -0.278954   -0.067647
H     -5.607686    3.463523   -0.061165
H     -4.836630    4.883561   -0.727764
H     -4.878561    3.489860   -1.774566
H      1.622688    2.144116   -4.139123
H      3.281543    1.566134   -3.860442
H      2.808795    3.135587   -3.135497
H      5.506191    0.396845    4.653353
H      4.423357    0.580554    6.155178
H      4.717869   -1.004389    5.371103
H      1.720538   -3.630613    0.283658
H      0.312988   -1.679597   -3.579698
H     -5.197890    0.176201    1.887870
H     -0.317923   -4.151631    0.777462
H     -1.632180   -2.266770   -3.056569
H     -5.085485   -2.083178    2.731004
H      6.519852   -2.279303    1.795185
H     -2.901675    3.263655   -2.707164
H     -1.439529    4.371909   -2.638549
H      6.681623   -3.303759   -0.427143
H     -3.065187    5.280322   -1.159026
H     -1.660090    4.648492   -0.245648
H      2.802623   -0.934615   -2.377186
H      3.294352   -2.559160   -2.703276
H     -5.073658    1.681442    0.478272
H     -4.658118    1.623494   -1.171895
H     -2.968818   -0.888637   -1.718573
H      0.235662    3.007866   -2.975690
H      5.377960   -1.064269    3.335466
H     -1.102051    0.083607    0.906061
H     -2.941252    2.233837    1.221233
H     -3.419747   -4.754826    1.075459
H      1.405407    1.108811    3.610206
