44

C      0.085445    2.582338    1.581996
C      3.007189   -0.496102   -1.410935
C      3.552556   -1.082297    0.908928
C     -1.442243    2.301563   -0.249809
C     -1.868127    1.246167   -1.257188
C      2.053611    0.871204    0.481226
C     -3.474027   -0.574414   -1.096243
C     -1.393038   -2.216569    0.071016
C     -0.004559    2.224830    0.088057
C     -2.333813    0.084078   -0.355561
C      0.726490    0.983220   -0.238402
C     -1.160829   -0.757965   -0.124774
C      0.113902   -0.305961   -0.096592
C      1.185189   -1.319445    0.108771
C      2.478857   -0.529292    0.003538
O     -4.020547   -1.645774   -0.415495
O     -2.190022   -2.370970    1.205679
O      1.183245   -1.840548    1.402499
H     -0.422429    1.819467    2.204701
H      1.130020    2.687088    1.909546
H     -0.412511    3.547789    1.777433
H      4.016246   -0.927761   -1.508564
H      2.292625   -0.920043   -2.144121
H      3.101720    0.592809   -1.683482
H      3.940904   -2.003519    0.466019
H      4.339172   -0.331415    1.081856
H      3.034225   -1.367759    1.864530
H     -2.116162    2.269566    0.649050
H     -1.667077    3.278790   -0.721163
H     -0.960167    0.945486   -1.819154
H     -2.655679    1.579526   -1.929192
H      1.957680    0.853485    1.574549
H      2.816932    1.549958    0.097956
H     -3.215390   -0.815810   -2.142506
H     -4.279456    0.202880   -1.160059
H     -0.482606   -2.792412    0.183114
H     -1.907775   -2.652427   -0.833147
H      0.511304    3.066596   -0.422866
H     -2.763051    0.471588    0.591591
H      1.026667    1.074408   -1.332833
H      1.175399   -2.084475   -0.674161
H     -4.654302   -1.317142    0.251602
H     -1.905422   -3.148988    1.739362
H      1.599851   -2.731747    1.373227
