85

C     -4.235402   -3.724926    2.003423
C      3.208582    1.155779    2.606649
C     -1.210040    6.203203   -1.982881
C     -5.469187    4.007439    0.407987
C      4.514734   -4.593249   -1.556426
C     -0.886224   -3.063873   -1.382123
C     -1.122649   -2.611798    0.901119
C      1.794172    3.486224   -1.453456
C      0.505755   -2.854185   -1.269383
C      0.273660   -2.408621    0.979486
C      0.775289    4.386866   -1.629072
C     -6.147787   -0.850071    1.097606
C      5.717316    1.352385    0.294159
C     -5.529909   -1.821329    2.026776
C      4.738279    2.165654    1.051228
C     -3.189103   -3.207552   -0.333800
C      2.867070    1.381500   -1.032948
C      0.278396    1.655077   -1.130127
C      6.369445   -0.969526    0.034317
C     -5.177671    1.293685    0.431028
C     -2.922326   -0.008321   -0.714064
C     -1.714951   -2.944387   -0.289417
C      1.575482    2.105021   -1.200286
C     -5.046185   -0.060499    0.448696
C      5.319282   -0.099948    0.144580
C      1.136814   -2.521397   -0.088241
C     -3.918932   -0.736916   -0.121157
C     -4.138112   -2.190838    0.141883
C      3.045887    0.634808    0.265384
C      6.061279   -2.299149   -0.088858
C     -0.485754    3.889639   -1.547867
C     -4.177925    1.995938   -0.158639
C     -0.784953    2.548557   -1.302417
C     -3.053039    1.391820   -0.730642
C      3.994933   -0.465333    0.139551
C      4.758874   -2.718987   -0.098815
C      3.653306   -1.830767    0.014545
N     -4.242791   -2.344517    1.609484
N      3.444872    1.609295    1.265167
O      7.134549   -3.196475   -0.202733
O     -1.499413    4.857391   -1.736104
O     -4.367381    3.396157   -0.149298
O      4.611115   -4.101275   -0.230159
O      2.472782   -2.336753   -0.004607
O     -2.156040    2.316812   -1.266803
H     -4.630107   -3.841234    3.068778
H     -3.235412   -4.191396    2.075996
H     -4.979913   -4.307967    1.418967
H      2.112327    1.316995    2.817099
H      3.731791    1.858592    3.293329
H      3.512880    0.116880    2.797128
H     -0.593096    6.563330   -1.114550
H     -0.631081    6.263954   -2.927201
H     -2.151971    6.771055   -2.064022
H     -6.380912    3.649052   -0.153329
H     -5.428592    5.093248    0.227942
H     -5.668874    3.741341    1.466200
H      3.991067   -5.558754   -1.612977
H      5.495718   -4.598983   -2.072954
H      3.887578   -3.853977   -2.131890
H     -1.095867   -3.318835   -2.466906
H     -1.539178   -2.450837    1.952443
H      2.830842    3.879653   -1.519837
H      1.011299   -2.998917   -2.272392
H      0.586237   -2.141046    2.041680
H      0.985100    5.450635   -1.824295
H     -6.738034   -1.298632    0.284702
H     -6.756764   -0.148681    1.715111
H      6.674351    1.379517    0.907821
H      6.056054    1.775708   -0.677204
H     -5.378001   -1.372762    3.045827
H     -6.266183   -2.661065    2.184354
H      4.624428    3.152101    0.510573
H      5.113455    2.487268    2.069383
H     -3.502869   -4.197508    0.107961
H     -3.592520   -3.425539   -1.394555
H      3.738036    2.103174   -0.993206
H      3.106215    0.833213   -1.952588
H      0.051951    0.548600   -0.960277
H      7.397804   -0.641561    0.042222
H     -6.055510    1.802919    0.874481
H     -2.027761   -0.490990   -1.213155
H     -5.203046   -2.475017   -0.173629
H      2.089248    0.220518    0.657137
H      8.083207   -2.906608   -0.196912
