83

C     -7.325062   -0.232613    0.982361
C      5.711899   -1.292539    2.487290
C     -1.016030   -0.987457   -4.475117
C      3.413173    5.200722   -2.006713
C      2.843367   -3.338655    0.975955
C     -2.225185   -0.258033    2.526853
C      1.866658   -4.290276    1.094623
C     -0.820192   -0.211541    2.380986
C     -5.083456    0.593671   -1.768646
C      5.826263    1.334656    0.288905
C     -6.107234    0.782622   -0.744963
C      5.956033    0.927772    1.750933
C     -2.440389    1.268859    0.736946
C     -4.534422    0.390908    1.705725
C      3.972409   -1.367647    0.272282
C      1.532764   -1.932345   -0.460577
C     -3.090447   -0.516322   -2.438362
C      4.067579    2.880072   -0.583177
C     -2.828699   -1.916242    0.034008
C     -0.712542    2.261130   -0.494706
C     -3.023433    0.488439    1.691635
C      2.707524   -2.153073    0.208184
C     -4.034389   -0.381993   -1.387063
C      4.389339    1.751686    0.105101
C     -1.026040    1.294237    0.616851
C     -3.891266   -1.072536   -0.190891
C     -5.007490   -0.724356    0.773011
C      3.857112   -0.266428    1.324283
C      0.703102   -4.033524    0.408555
C     -0.193606    0.556562    1.428550
C      0.529254   -2.880210   -0.355411
C     -2.040491   -1.355175   -2.202431
C     -1.884466   -2.061651   -0.979268
C      2.720327    3.287508   -0.681505
C      3.400774    1.003777    0.706879
C      1.732841    2.557217   -0.087935
C      2.049116    1.398851    0.625326
N     -6.193871   -0.338154    0.093266
N      5.039763   -0.074131    2.076412
O     -0.283124   -5.037908    0.549670
O     -1.135400   -1.496755   -3.204195
O      2.385291    4.436882   -1.384632
O      0.419917    3.058244   -0.264871
O     -0.738544   -2.846004   -0.958754
O      1.182480    0.594581    1.273093
H     -7.621336    0.846563    1.070203
H     -8.186398   -0.734014    0.500187
H     -7.164321   -0.699482    1.957102
H      6.477265   -1.626518    1.740275
H      6.295415   -1.034218    3.425159
H      5.075619   -2.116576    2.762960
H     -0.222379   -0.203396   -4.518047
H     -0.605977   -1.820703   -5.122587
H     -1.941667   -0.679263   -4.978122
H      4.208414    5.460647   -1.255079
H      2.931352    6.114146   -2.410599
H      3.937309    4.630287   -2.808244
H      3.778938   -3.553459    1.522223
H     -2.494358   -0.960770    3.375388
H      1.998405   -5.190361    1.690469
H     -0.325563   -0.870747    3.132214
H     -4.610868    1.554141   -2.130036
H     -5.593020    0.208352   -2.711015
H      6.124233    0.519910   -0.375407
H      6.527731    2.179153    0.133617
H     -5.968867    1.777283   -0.276169
H     -7.135445    0.886016   -1.231149
H      5.822745    1.822028    2.408699
H      6.989970    0.575828    1.946598
H     -2.806250    1.965850   -0.067300
H     -5.005280    0.141818    2.684276
H     -5.102271    1.282604    1.424846
H      4.844638   -1.990416    0.668133
H      4.418120   -1.025709   -0.675304
H      1.345949   -1.002907   -1.103028
H     -3.210344    0.026124   -3.378204
H      4.835909    3.471749   -1.057837
H     -2.667616   -2.535885    0.980278
H     -0.572015    1.651699   -1.399533
H     -1.570627    2.934246   -0.682816
H     -5.351309   -1.551954    1.426283
H      3.038714   -0.538513    2.059238
H     -1.166020   -4.916381    0.072516
