59

C      1.445560    4.273934    1.701098
C     -0.178751    2.524519    2.604090
C      4.168107   -3.373571    0.809591
C      4.375499   -1.007016    1.660441
C      1.409692    1.998033    0.815933
C      3.502724   -1.531213   -0.614226
C     -5.487881   -0.810218    0.688762
C     -4.134825    1.020540   -0.245406
C     -5.612533   -2.059912    1.319940
C      0.977199    0.574083    0.651156
C      3.246169   -0.132339   -1.051914
C     -2.936427    1.008599   -1.210321
C     -3.190907   -2.196769    1.402463
C     -0.626160    0.308218   -2.663307
C      0.904127    2.866893    1.654886
C      3.979879   -1.896812    0.555299
C     -4.258180   -0.273926    0.424158
C     -4.442546   -2.714022    1.656967
C      0.757871    0.338336   -0.793625
C      1.876016    0.081772   -1.575704
C     -0.510409    0.456444   -1.300208
C      0.443320    0.057642   -3.472427
C     -1.668618    0.700617   -0.433449
C     -3.107278   -0.943974    0.769256
C      1.720734   -0.062112   -2.946701
O     -4.488695   -3.963929    2.287444
O      0.277193   -0.082407   -4.834931
O      2.779612   -0.323233   -3.829330
O     -1.892793   -0.363687    0.481971
H      2.499131    4.306329    1.987527
H      1.378620    4.729824    0.682475
H      0.853105    4.887547    2.373245
H     -0.117537    1.464962    2.867346
H     -0.013708    3.073547    3.581215
H     -1.150067    2.840430    2.167578
H      3.280896   -3.820206    1.256161
H      5.072272   -3.500989    1.411689
H      4.406571   -3.831476   -0.189574
H      5.290812   -1.457039    2.147701
H      3.605411   -0.986243    2.483909
H      4.678346    0.002192    1.377939
H      2.223896    2.388299    0.170112
H      3.254704   -2.293406   -1.375171
H     -6.421938   -0.327443    0.439349
H     -3.885907    1.777471    0.545583
H     -5.013391    1.383119   -0.774169
H     -6.592394   -2.474308    1.522917
H      1.801209   -0.091587    0.962168
H      0.125028    0.320899    1.272894
H      3.424147    0.492654   -0.130637
H      3.974513    0.252822   -1.771403
H     -2.943197    2.000866   -1.682329
H     -3.131849    0.204249   -1.942824
H     -2.269200   -2.680273    1.653278
H     -1.580905    0.392260   -3.130519
H     -1.511382    1.608144    0.206110
H     -5.340491   -4.437049    2.518182
H      1.078235   -0.267995   -5.412984
H      3.697371   -0.432093   -3.495869
