47

C     -6.178926   -1.633482    1.857193
C      1.787658    3.066031   -3.568214
C      1.893136    2.315252   -2.420158
C      0.627280    3.124379   -4.310586
C     -4.802687    0.392724    1.323709
C     -3.799432   -1.720879    1.056755
C     -3.649964    1.026849    0.913213
C     -2.641060   -1.097613    0.644704
C      2.672257   -0.296740    1.496938
C      3.801718   -1.607497   -0.095336
C      3.379267   -0.914728    2.521681
C      4.496854   -2.213301    0.926006
C     -0.361685    1.625872   -2.700082
C     -0.152049    0.040373   -0.237431
C     -4.911033   -0.983681    1.406960
C     -2.530318    0.273534    0.560905
C      0.787634    1.578602   -1.978980
C     -0.445778    2.390487   -3.855610
C      2.864864   -0.625637    0.179063
C      4.308877   -1.889675    2.245324
C      1.019099    0.796975   -0.744714
C     -1.295326    0.937543    0.123010
F     -1.634649    2.387909   -4.525776
N      2.160307   -0.035057   -0.900916
N      5.038473   -2.528385    3.295384
O     -1.249965    2.186869    0.070369
O      5.949026   -3.490057    2.939756
O      4.830316   -2.199833    4.476536
H     -6.890122   -1.710055    0.996438
H     -6.708142   -0.957678    2.590999
H     -6.017324   -2.580919    2.370560
H      2.625791    3.659385   -3.953214
H      2.833866    2.313757   -1.884663
H      0.555668    3.722727   -5.218151
H     -5.684319    0.982324    1.601398
H     -3.885036   -2.805167    1.122805
H     -3.566430    2.105780    0.848360
H     -1.780700   -1.710788    0.375105
H      1.956677    0.474986    1.770727
H      3.975093   -1.887004   -1.121462
H      3.235494   -0.664038    3.563173
H      5.213626   -2.971465    0.645618
H     -1.212149    1.038880   -2.353669
H     -0.495474   -0.759942   -0.938361
H      0.128898   -0.498402    0.684186
H      1.252951    1.560404    0.081817
H      2.497738   -0.219620   -1.881374
