59

C      1.810243    3.048142   -0.343824
C      1.980196    3.593039   -2.805512
C      3.669700   -4.016801    0.066726
C      5.121907   -2.113261    0.940673
C      1.041254    1.495952   -2.094775
C      2.937114   -1.710227   -0.129772
C     -5.922244   -0.236543   -0.411767
C     -4.180805    1.549846   -0.183819
C     -6.225579   -1.570278   -0.578822
C      0.515677    0.298491   -1.406111
C      2.999997   -0.228321    0.015808
C     -2.974635    1.491778    0.769817
C     -3.938604   -2.168693   -0.654464
C     -0.569406    0.849248    2.068703
C      1.560218    2.602546   -1.714926
C      3.865537   -2.546525    0.278011
C     -4.612358    0.131314   -0.365940
C     -5.259101   -2.539715   -0.700543
C      0.572133    0.386285    0.035264
C      1.763276    0.191668    0.749693
C     -0.619483    0.719311    0.698516
C      0.586734    0.666631    2.794273
C     -1.857338    0.898710   -0.068833
C     -3.612732   -0.812229   -0.484478
C      1.749359    0.336576    2.115824
O     -5.633402   -3.889675   -0.869947
O      0.629363    0.800583    4.172263
O      2.924270    0.151966    2.854320
O     -2.308193   -0.404420   -0.434124
H      1.975274    4.192374   -0.317100
H      2.809765    2.697365    0.045590
H      0.986891    2.929941    0.375616
H      1.504354    3.329244   -3.755477
H      1.617788    4.607363   -2.529881
H      3.079122    3.637341   -2.825406
H      2.601008   -4.317328    0.242726
H      3.947927   -4.299457   -0.974825
H      4.320139   -4.594542    0.739131
H      4.910637   -2.151716    2.039321
H      5.920573   -2.887092    0.754873
H      5.470961   -1.136060    0.607322
H      0.972585    1.427946   -3.253216
H      2.063567   -2.135926   -0.593662
H     -6.677846    0.533049   -0.314102
H     -4.966136    2.214156    0.168388
H     -3.772730    1.870695   -1.168829
H     -7.266395   -1.863325   -0.615430
H     -0.554426    0.122467   -1.764097
H      1.059561   -0.569132   -1.865093
H      3.904017    0.143140    0.496761
H      2.909793    0.150233   -1.050197
H     -3.174520    0.788955    1.596102
H     -2.784862    2.531018    1.076866
H     -3.148431   -2.900162   -0.745316
H     -1.469016    1.109146    2.634177
H     -1.792387    1.495787   -0.974096
H     -5.767333   -4.481571   -0.063957
H      1.493678    0.659966    4.672398
H      3.813343   -0.079273    2.499822
