76

C     -1.990442    3.858925    0.108656
C      1.941441   -1.861016    2.661533
C     -5.491397   -1.240327    2.292443
C     -6.295581    1.441173   -1.083151
C      4.758125   -3.633450   -0.309425
C      6.174675   -0.403924    1.164414
C      3.992808    4.314062   -2.509453
C     -3.462985   -4.381295    0.074161
C      3.597661    3.255811   -3.282769
C      3.519622    4.407893   -1.232193
C     -3.251930   -3.653321    1.225325
C     -2.922828   -3.893736   -1.102855
C      2.737316    2.312110   -2.764143
C      2.646764    3.446184   -0.712912
C     -2.527907   -2.483941    1.193840
C     -2.200274   -2.721404   -1.118565
C      0.194525    1.992045   -0.201296
C     -0.094546   -0.778170    0.921332
C      2.233989    2.371925   -1.469605
C     -1.979595   -1.978341    0.030535
C      1.291113    1.358591   -0.925260
C     -1.213636   -0.754388   -0.059064
C     -1.021058    1.674758    0.205438
C      1.155715   -0.386504    0.842718
C     -4.158268    0.334699    0.955739
C     -4.241253    0.466608   -0.366410
C      3.355670   -1.636964   -0.596484
C      3.987752   -0.850009    0.258097
C     -2.781236    0.573680    1.373396
C     -2.931823    0.801370   -0.919766
C      2.266828   -0.886444   -1.205684
C      3.337151    0.486955    0.258415
C     -1.954519    0.525894    0.166586
C      1.979964    0.232106   -0.221586
O     -2.476366    0.772808    2.577204
O     -2.676396    1.235525   -2.080657
O      1.689335   -1.103312   -2.293012
O      3.975411    1.482977    0.622964
O     -1.626058    2.730781    0.878511
O      1.847625   -0.604783    2.020165
O     -5.242737    0.020693    1.742207
O     -5.413671    0.308972   -1.130941
O      3.666525   -2.976828   -0.883577
O      5.078644   -1.278820    1.000403
H     -2.467260    4.650135    0.736053
H     -1.094562    4.266185   -0.413202
H     -2.747714    3.603606   -0.674597
H      0.950803   -2.263478    2.949167
H      2.503866   -2.594642    2.034784
H      2.480592   -1.675481    3.622728
H     -4.666976   -1.557503    2.964292
H     -6.405749   -1.216179    2.919629
H     -5.636727   -2.030682    1.525941
H     -5.693601    2.301425   -1.489074
H     -6.510566    1.722185   -0.024460
H     -7.201403    1.287685   -1.677816
H      4.772915   -4.668524   -0.703290
H      5.721796   -3.126137   -0.581626
H      4.719809   -3.629852    0.810660
H      6.569915   -0.167375    0.144258
H      6.988061   -0.895332    1.772988
H      5.849284    0.533835    1.637959
H      4.675628    5.069780   -2.908495
H     -4.032132   -5.299176    0.101601
H      3.983378    3.198317   -4.294320
H      3.842727    5.254069   -0.632625
H     -3.666931   -4.011495    2.179793
H     -3.080711   -4.454599   -2.013198
H      2.428246    1.472608   -3.386377
H      2.333802    3.621740    0.304086
H     -2.357175   -1.911300    2.087178
H     -1.793013   -2.376963   -2.075960
H      0.427933    3.004048    0.086672
H     -0.410745   -1.205742    1.864253
H      0.854155    0.870294   -1.862905
H     -0.811795   -0.671019   -1.109371
