55

C      3.688874   -1.900692    1.305291
C     -1.173694    3.480272    1.182313
C      0.783683    3.375509   -1.911393
C      4.170112   -1.359729   -0.004844
C      3.121616   -1.312345   -1.060242
C      0.500047    1.652218    0.985324
C     -1.932869    1.163419    1.380651
C     -3.604960   -0.586919    0.706174
C     -2.584817   -2.740216   -0.091887
C      2.498383    0.968924   -0.376352
C     -0.346734   -2.333585   -1.159314
C     -0.919774    2.079404    0.683943
C     -3.471947   -2.055295    0.924328
C      1.967736   -0.429238   -0.623553
C      1.368434    1.959069   -0.195344
C     -2.332583    0.120059    0.390676
C     -1.671208   -1.728523   -0.679905
C      0.219400   -1.355362   -2.103338
O     -4.763049   -2.616337    0.789167
O     -0.026877   -1.501265   -3.312785
O      0.658077    2.087709   -1.378771
O     -1.303876   -0.839547    0.357245
O      0.990231   -0.326093   -1.635230
H      3.547055   -1.035570    2.005741
H      2.768590   -2.507209    1.215470
H      4.465604   -2.533655    1.778132
H     -2.009270    3.892611    0.546970
H     -0.285839    4.117416    1.157667
H     -1.607654    3.445595    2.216690
H      1.868329    3.606352   -2.126271
H      0.281648    3.451040   -2.896609
H      0.415364    4.116434   -1.173532
H      4.972153   -2.067182   -0.368653
H      4.687494   -0.378797    0.100328
H      2.761772   -2.337081   -1.283542
H      3.549133   -0.847817   -1.965380
H      0.809325    2.252582    1.889600
H      0.478227    0.597828    1.266555
H     -1.419015    0.653964    2.240423
H     -2.815090    1.721749    1.722435
H     -4.324755   -0.436382   -0.140625
H     -4.083577   -0.142795    1.590107
H     -3.222927   -3.146362   -0.925905
H     -2.064948   -3.565601    0.438852
H      3.236607    1.015365    0.435410
H      3.028482    1.275139   -1.313333
H     -0.574156   -3.297749   -1.676329
H      0.302382   -2.511339   -0.278770
H     -1.092514    2.069899   -0.418872
H     -3.137497   -2.228584    1.969259
H      1.559277   -0.881541    0.307211
H      1.859499    2.947905    0.012611
H     -2.373869    0.612833   -0.618671
H     -2.138291   -1.183926   -1.504295
H     -5.275743   -2.476563    1.625166
