42

C     -2.139483    0.850262   -1.999640
C      4.762687    0.288775   -1.100858
C      3.442412    1.970116   -0.173654
C     -3.590980   -3.381567    0.693777
C     -2.751987   -4.450162    0.907962
C     -0.784418    3.060799    1.802401
C     -3.173953   -2.132000    0.319058
C     -1.412465   -4.195659    0.720072
C      1.071047    0.417525   -0.749083
C     -0.660391    3.700484    0.580897
C     -1.311403    1.819069    1.515528
C      2.499823   -0.154579   -0.751841
C     -2.023299    0.594400   -0.520797
C     -1.783135   -1.866496    0.123637
C     -1.004810   -2.921688    0.339581
C      0.112495   -0.637076   -0.379140
C     -1.229616   -0.683528   -0.246262
N     -1.101203    2.844541   -0.337529
N      3.419783    0.868800   -1.109424
N     -1.499401    1.704644    0.193756
S      0.677456   -2.358827    0.036358
H     -1.289800    1.379687   -2.430808
H     -3.042414    1.496794   -2.138622
H     -2.394052   -0.108158   -2.507351
H      5.524269    1.037515   -1.396472
H      4.922116   -0.127054   -0.085655
H      4.721400   -0.582781   -1.794399
H      2.564415    2.626612   -0.263437
H      3.548335    1.535668    0.843119
H      4.376381    2.542695   -0.369415
H     -4.658221   -3.555504    0.835566
H     -3.110452   -5.429422    1.204332
H     -0.507389    3.499121    2.748439
H     -3.919082   -1.369389    0.178876
H     -0.658683   -4.931781    0.851829
H      1.113217    1.196578    0.067431
H      0.936470    0.849355   -1.746556
H     -0.282431    4.699159    0.384936
H     -1.531691    1.067405    2.256340
H      2.493198   -0.908740   -1.576590
H      2.730385   -0.690160    0.170398
H     -3.055133    0.434569   -0.154637
