47

C      3.448631    0.672549   -2.806506
C      1.915957   -1.372724    1.500547
C      3.279117   -1.641389    1.435680
C     -3.057364    0.216451    0.400007
C     -2.501378    2.489536    1.066902
C      2.014335   -0.256893   -0.551011
C      0.237019    1.920961    1.287627
C     -3.326514   -2.115143   -0.477942
C     -0.546574   -2.021769   -1.300002
C      1.230296   -0.676746    0.521584
C     -1.984435    1.209397    0.802517
C     -2.428589   -1.144955    0.156886
C     -0.651010    0.936136    0.910894
C     -1.057617   -0.944293   -0.464915
C      4.005459   -1.205802    0.357231
C     -1.617336    3.474424    1.443090
C     -0.268317    3.166762    1.544646
C      3.363691   -0.504160   -0.649281
C     -0.167405   -0.407684    0.623865
O     -2.730535   -3.358872   -0.648281
O     -1.405157   -2.215216   -2.406686
O      5.375431   -1.441700    0.230150
O     -2.051694    4.778426    1.724836
O      0.607603    4.167473    1.923899
O      4.027242   -0.036450   -1.760414
H      4.046152    0.691519   -3.725639
H      3.219513    1.696137   -2.445395
H      2.490056    0.149460   -3.086169
H      1.417155   -1.757872    2.396280
H      3.797177   -2.181452    2.200996
H     -3.453907    0.563907   -0.568771
H     -3.840979    0.237814    1.142817
H     -3.548879    2.721339    0.986181
H      1.510616    0.282702   -1.304668
H      1.316989    1.704048    1.376590
H     -3.749959   -1.793044   -1.455546
H     -4.194851   -2.295775    0.209603
H      0.424017   -1.762785   -1.760131
H     -0.447400   -3.013616   -0.810169
H     -2.213993   -1.530222    1.201458
H     -1.242420   -0.052010   -1.182614
H     -0.492573   -0.979214    1.549293
H     -2.707025   -3.852827    0.206310
H     -1.238413   -1.450230   -3.013305
H      5.904201   -1.126360   -0.551845
H     -3.043361    4.946320    1.634976
H      0.337026    5.113840    2.134427
