61

C     -3.355946   -2.011660    0.701396
C     -3.294727    3.244814    1.142251
C      0.346212    0.034060   -2.368298
C      5.652305    0.466852    1.756087
C     -3.756263   -1.192766   -0.509108
C     -3.104966    1.725941    0.991379
C      3.807751   -2.339647   -0.876806
C      2.488367   -2.155520   -1.235423
C      4.436432   -1.436437   -0.016266
C      1.650191    0.922813    0.631218
C      0.214047    0.590584    0.933969
C     -2.578643   -0.573976   -1.192284
C     -2.146731    1.528924   -0.129124
C      0.342234   -0.848294   -1.141333
C      1.744506   -1.070347   -0.754022
C      2.395744   -0.223856    0.076832
C     -0.494334   -0.261652   -0.023039
C      3.711321   -0.367615    0.460932
N     -1.732228    0.283293   -0.521020
O      4.341317    0.523547    1.312601
C     -0.540039    0.825195   -0.429577
C      0.758819    0.665857   -0.485551
C     -1.482317   -0.058324    0.189520
C      1.412227   -0.470618    0.097734
O     -1.326189   -1.120028    0.788518
O     -2.846330    0.343463    0.109499
O      0.948769   -1.435551    0.708109
O      2.835658   -0.545324   -0.019961
H     -3.027626   -1.320071    1.481059
H     -4.293072   -2.563847    1.004276
H     -2.631971   -2.770245    0.393151
H     -3.353111    3.529046    2.214739
H     -2.438995    3.792529    0.682894
H     -4.230214    3.522943    0.623064
H      0.873056   -0.567501   -3.158113
H      0.969811    0.900349   -2.168108
H     -0.646616    0.260228   -2.759360
H      5.991365    1.535614    1.909681
H      6.308631    0.097833    0.944888
H      5.809717   -0.072664    2.708658
H     -4.126410   -1.992856   -1.262502
H     -4.626675   -0.561505   -0.363616
H     -4.078935    1.288873    0.743786
H     -2.790741    1.302761    1.959029
H      4.355911   -3.194760   -1.269438
H      1.996911   -2.858320   -1.908412
H      5.469000   -1.600951    0.251187
H      1.776313    1.752298   -0.088982
H      2.173054    1.235957    1.552080
H     -0.255820    1.543666    1.222555
H      0.270887    0.053015    1.936032
H     -2.091276   -1.391209   -1.779969
H     -3.053060    0.041846   -2.038703
H     -2.789255    1.928855   -1.019881
H     -1.359544    2.354605   -0.168455
H     -0.028070   -1.887197   -1.408271
H     -0.839856   -1.198351    0.526791
H     -0.935377    1.752017   -0.919664
H      1.372093    1.449287   -1.009690
H     -3.558572   -0.394278    0.234895
H      3.361259   -1.011695    0.736168
