42

C     -1.224484   -0.213682    2.008283
C      4.016794    1.621321   -0.171683
C      3.632651    1.191364    2.095789
C     -3.002413   -3.780138   -1.117142
C     -2.252401   -4.427840   -2.065389
C     -1.844119    3.580742    0.146304
C     -2.622183   -2.598534   -0.543888
C     -1.073959   -3.833619   -2.429995
C      1.204923    0.769934   -0.658389
C     -2.111627    3.093120   -1.137242
C     -1.622295    2.518816    0.985324
C      2.030624    0.486010    0.566650
C     -1.649600    0.036522    0.613396
C     -1.405310   -1.955957   -0.900490
C     -0.703244   -2.628408   -1.833947
C      0.280047   -0.360021   -0.888195
C     -0.893198   -0.789474   -0.419683
N     -2.043357    1.766874   -1.032126
N      2.978882    1.562409    0.838050
N     -1.753551    1.423348    0.225473
S      0.756866   -1.654208   -2.110691
H     -2.075867   -0.469296    2.711637
H     -0.738402    0.668799    2.516800
H     -0.453730   -1.038394    2.097081
H      4.108835    0.688906   -0.749277
H      5.027167    1.757461    0.312376
H      3.882538    2.483402   -0.867527
H      2.855220    1.173668    2.894845
H      4.023907    0.147856    1.956159
H      4.449872    1.888638    2.287320
H     -3.934295   -4.241174   -0.822864
H     -2.567354   -5.348873   -2.501748
H     -1.812587    4.618853    0.452887
H     -3.296580   -2.189739    0.189115
H     -0.401386   -4.257685   -3.171030
H      0.640898    1.673379   -0.472248
H      1.912200    0.873323   -1.523074
H     -2.320875    3.697760   -1.982403
H     -1.393695    2.525406    2.021741
H      1.461591    0.245903    1.474376
H      2.693059   -0.419733    0.408234
H     -2.759563   -0.287039    0.597188
