38

C     -4.386473   -0.859818   -0.015872
C     -4.431955    0.784702   -1.938883
C      5.817332    0.164793    0.174808
C     -0.230415   -1.897016    0.628608
C     -2.021429    0.614574    1.022963
C     -2.754100    0.919067   -0.208896
C      3.787490   -1.118934    0.758905
C      3.538400    0.942920   -0.429926
C      2.395493   -1.254359    0.733932
C      2.144918    0.781605   -0.439999
C     -0.532660    0.556557    0.931475
C     -3.780000    0.307282   -0.688041
C      4.348414    0.002165    0.164838
C      1.575895   -0.328846    0.148518
C      0.102346   -0.513790    0.127954
O     -0.291501   -0.464043   -1.210343
H     -3.946023   -1.773312   -0.443985
H     -4.211228   -0.889570    1.086337
H     -5.481686   -0.942010   -0.241877
H     -4.428178    0.004122   -2.710042
H     -4.014971    1.761722   -2.266845
H     -5.525764    0.895304   -1.674477
H      6.104952    1.154515   -0.200113
H      6.354214   -0.619073   -0.377698
H      6.106556    0.086192    1.272668
H      0.031174   -2.023752    1.707917
H      0.326345   -2.620490   -0.017655
H     -1.300159   -2.152459    0.512055
H     -2.307184   -0.493847    1.223810
H     -2.334430    1.232868    1.865717
H     -2.373360    1.794123   -0.799560
H      4.371498   -1.886128    1.239955
H      4.014965    1.791087   -0.895128
H      1.925434   -2.131750    1.187071
H      1.496291    1.543695   -0.896461
H     -0.243073    1.563699    0.442796
H     -0.050400    0.669246    1.953348
H      0.203271   -1.158481   -1.727872
