42

C     -4.772251    1.102639   -1.171631
C      5.133835    1.819681   -0.794859
C     -4.589525   -0.249580   -0.555497
C      3.169066   -2.418514    0.410857
C     -1.479208    1.058876    2.213888
C      1.909385   -2.039614    0.863558
C     -0.063268    0.740561    1.825808
C      3.848637   -1.566473   -0.407838
C     -3.184061   -0.750001   -0.555937
C     -2.460891    0.109011    1.567466
C      2.007435    0.011403   -0.303015
C     -0.930476   -0.389897   -0.140368
C      1.325631   -0.841210    0.517075
C     -0.031155   -0.545609    1.064794
C      3.266264   -0.366283   -0.755894
N     -2.253033    0.087767    0.161785
O      5.084068   -0.018291   -2.710762
O      3.192415    1.552214   -2.656825
S      4.131089    0.741661   -1.812318
H     -3.873923    1.724928   -1.201078
H     -5.626925    1.599177   -0.625188
H     -5.140449    1.036619   -2.237520
H     -5.191009   -0.977214   -1.154558
H     -5.000120   -0.318916    0.476460
H     -3.175483   -1.744093   -0.074683
H     -2.782748   -0.890038   -1.583563
H      4.550494    2.183169    0.075601
H      5.553621    2.652094   -1.379589
H      5.990707    1.201026   -0.409081
H      3.631348   -3.358225    0.680101
H     -1.567970    0.959900    3.336148
H     -1.743015    2.126366    1.986228
H      1.377662   -2.728572    1.516355
H      0.591503    0.733757    2.725184
H      0.290032    1.575993    1.153278
H      4.838881   -1.777014   -0.810954
H     -3.511120    0.358812    1.853388
H     -2.269938   -0.903831    2.000985
H      1.545711    0.943893   -0.568597
H     -0.957880   -1.412848   -0.616811
H     -0.483411    0.349746   -0.841748
H     -0.349923   -1.373072    1.710658
