43

C     -5.496057    1.001537   -0.152645
C     -4.884422   -1.248666   -1.057517
C      5.688966    0.951787   -0.485462
C      4.621338    1.825571   -0.474761
C      5.514717   -0.390895   -0.219629
C      3.395794    1.302285   -0.191132
C      2.801554   -2.706131    0.612854
C      1.740508   -1.821594    0.620668
C     -2.733342    1.130657    0.816273
C     -0.464055    0.103708    0.620876
C     -4.592595   -0.180547   -0.009067
C     -1.261398    1.408206    0.518184
C      4.271483   -0.887900    0.062060
C      3.188184   -0.034197    0.078827
C      4.072712   -2.215570    0.328532
C      1.907660   -0.483665    0.357393
N     -3.223725    0.193178   -0.172244
O     -0.779718    2.301370    1.446525
O      5.098157   -3.125284    0.330729
O      0.877346    0.414019    0.358470
Cl     0.688904    0.000000    0.000000
H     -6.529454    0.641959    0.112076
H     -5.245073    1.759355    0.594778
H     -5.572196    1.384426   -1.191074
H     -3.961285   -1.827610   -1.196572
H     -5.068276   -0.711618   -2.022276
H     -5.760560   -1.866523   -0.796290
H      6.689640    1.349907   -0.711997
H      4.754800    2.872701   -0.681505
H      6.389940   -1.022070   -0.243698
H      2.527798    1.977976   -0.175876
H      2.659731   -3.744855    0.819512
H      0.736150   -2.209297    0.845786
H     -2.895464    0.779627    1.842991
H     -3.243839    2.101370    0.648565
H     -0.800089   -0.635850   -0.125873
H     -0.614631   -0.330467    1.642440
H     -4.807571   -0.652270    0.970061
H     -1.187403    1.804183   -0.501081
H     -2.964911    0.457107   -1.136044
H     -0.904207    3.247232    1.175525
H      6.053795   -2.913153    0.144909
H     -0.688904    0.000000    0.000000
