78

C      8.651737    0.768526   -0.125667
C      8.868902   -0.676983   -0.049435
C      8.078589   -1.539304    0.845900
C      6.656796   -1.767083    0.721105
C      5.546480   -0.855533    0.894996
C    -10.494895    1.202605    2.399847
C    -10.335079   -0.119023    2.071701
C     -9.410665    2.047728    2.238477
C      5.332302    0.358351    0.097521
C     -9.138727   -0.622343    1.591449
C     -8.200578    1.545213    1.754064
C     -6.334305   -1.566177    1.173943
C     -6.020157    0.600915    0.176079
C     -5.108350   -1.964074    0.660364
C     -4.807024    0.160475   -0.314281
C      1.414513   -0.928275   -1.556985
C      4.028659    1.098234    0.397135
C      2.637981   -0.147372   -1.258477
C      1.489029    1.225985    1.727419
C      1.940823   -0.131605    2.176739
C     -0.625780    2.140683   -1.643382
C     -0.966574   -0.941503   -3.360398
C     -8.054002    0.214042    1.428034
C     -6.775475   -0.282758    0.923462
C     -4.328907   -1.110910   -0.088450
C      0.094653   -0.239230   -1.386979
C      0.012165    0.949148   -2.306890
C     -0.974799   -1.209946   -1.871931
C     -0.925866    0.564943   -3.402334
C     -1.937610    2.274682   -2.293890
C     -3.048538   -1.574335   -0.607273
C      2.782386    0.329504    0.160649
O     -2.727065    3.241744   -2.225341
O     -2.654447   -2.744922   -0.375879
O      1.729062    1.259527    0.351904
O      2.526742   -0.678553    1.048691
O     -2.171479    1.121696   -3.020586
O     -2.220131   -0.760652   -1.366633
H      9.608709    1.309128   -0.411349
H      7.947918    1.023830   -0.916115
H      8.345766    1.201028    0.852000
H      8.815340   -1.058683   -1.128459
H      9.987276   -0.852562    0.154776
H      8.351363   -1.257764    1.950358
H      8.575728   -2.598795    0.841879
H      6.511251   -2.276106   -0.344849
H      6.391298   -2.702931    1.407255
H      5.504019   -0.512261    1.995767
H      4.567269   -1.477618    0.836921
H      5.524881    0.260687   -0.985472
H      6.087436    1.148835    0.454228
H      4.007427    2.030559   -0.200753
H      4.059814    1.370649    1.483155
H    -11.455434    1.578713    2.779571
H    -11.168429   -0.822644    2.184281
H     -9.497072    3.105904    2.488443
H     -9.077338   -1.684872    1.348636
H     -7.396152    2.268309    1.654430
H     -6.969201   -2.202680    1.761624
H     -6.371044    1.620986   -0.022851
H     -4.768848   -2.985774    0.866170
H     -4.169135    0.812249   -0.909504
H      1.349922   -1.849255   -0.890392
H      1.420300   -1.323084   -2.619287
H      2.828557    0.678693   -1.985992
H      3.513247   -0.855730   -1.413908
H      2.088436    1.991509    2.250730
H      0.390317    1.355071    1.887561
H      1.041643   -0.744306    2.417246
H      2.628332   -0.110726    3.043671
H      0.015151    3.032462   -1.881293
H     -0.717363    2.008664   -0.539314
H     -1.937227   -1.335157   -3.758020
H     -0.107443   -1.341118   -3.898262
H     -0.132637    0.037655   -0.329030
H      1.030696    1.214386   -2.711418
H     -0.751604   -2.243402   -1.600894
H     -0.603535    0.942729   -4.400782
