26

C     -1.943624    1.045734    0.599159
C      3.547410   -1.116861    0.036046
C      0.819012    1.522229   -0.774919
C     -3.305851    0.772156    0.524564
C      0.364278    0.485673    0.264287
C      2.472585   -0.196160    0.538423
C     -3.737442   -0.428207   -0.000903
C     -1.487404   -0.992610   -0.335632
F     -4.248762    1.642167    0.950276
N     -4.999417   -0.732501   -0.092909
N     -2.782265   -1.280294   -0.418991
N     -1.011083    0.173276    0.172700
O      4.768482   -0.624445    0.501520
O     -0.562046   -1.906422   -0.780471
O      1.200374   -0.607553    0.121959
S      2.627435    1.348299   -0.458807
H     -1.648230    1.994301    1.016080
H      3.377682   -2.172836    0.316903
H      3.579756   -0.993321   -1.082142
H      0.466700    2.513552   -0.517614
H      0.647409    1.186141   -1.796304
H      0.572618    0.945608    1.253060
H      2.525158    0.019545    1.606607
H     -5.688835   -0.037441    0.244941
H      4.927360    0.220352   -0.027729
H     -0.481300   -2.780382   -0.245535
