44

C     -3.423383    3.549462    1.326487
C     -2.203744   -2.047656   -1.644325
C      0.876968   -2.121434    1.055020
C     -2.338435   -0.568592   -1.364847
C     -1.043794   -2.404875   -0.722997
C     -0.507288   -1.824622    1.520857
C      2.876779   -1.315662    0.124982
C      1.762921    0.858445   -1.028630
C     -2.458172    0.530071    0.746629
C      5.379876    0.863694   -1.326669
C      1.510464   -1.077099    0.257613
C      0.922157    0.019799   -0.318915
C      3.672241   -0.448288   -0.593588
C      3.117488    0.653048   -1.179958
C     -1.890064    1.635896    1.131350
C     -0.439525    0.555166   -0.373235
C     -0.514932    1.674055    0.621439
C     -1.555829   -0.307065   -0.060253
N     -1.346160   -1.605747    0.414683
O      0.327529    1.449373    1.721364
O     -2.499464    2.654909    1.923100
O      5.053308   -0.457572   -0.875414
O      4.142810    1.340369   -1.831684
H     -2.886609    4.085629    0.513353
H     -4.259297    2.974724    0.883121
H     -3.727005    4.299629    2.057652
H     -3.084077   -2.626471   -1.271991
H     -1.969197   -2.264170   -2.700286
H      1.506683   -2.290185    1.976368
H      0.902031   -3.089346    0.515094
H     -3.399059   -0.347154   -1.275018
H     -1.907209   -0.006955   -2.209509
H     -1.063669   -3.491656   -0.492476
H     -0.120416   -2.117004   -1.263415
H     -0.868378   -2.777416    2.019841
H     -0.563694   -1.069463    2.303141
H      3.304573   -2.187880    0.591780
H      1.353601    1.756426   -1.515686
H     -3.492971    0.232221    0.984249
H      5.727278    1.431164   -0.453077
H      6.103390    0.854183   -2.148447
H     -0.551945    1.044298   -1.387207
H     -0.256362    2.660863    0.165666
H     -0.169420    1.322887    2.564200
