44

C     -2.920485    3.215831   -0.724225
C     -2.673905   -2.697028    0.236469
C      1.513274   -2.286844   -0.513390
C     -2.384958   -1.324750    0.793647
C     -1.913647   -2.711257   -1.038635
C      0.337790   -2.033933   -1.480656
C      3.166682   -0.613432   -0.433557
C      1.649129    1.259136    0.934480
C     -1.507239    0.488746   -0.692938
C      4.815160    2.619408   -0.176510
C      1.881621   -0.917833   -0.058861
C      1.111343    0.039744    0.639345
C      3.712220    0.633335   -0.129267
C      2.938298    1.564502    0.558303
C     -1.457414    1.507063    0.180140
C     -0.227555   -0.197825    1.077799
C     -1.096252    0.939437    1.472997
C     -1.169802   -0.796592    0.026213
N     -0.800077   -1.859251   -0.720428
O     -0.769858    1.730383    2.502546
O     -1.701654    2.829096   -0.099856
O      4.945888    1.222361   -0.365768
O      3.731958    2.700870    0.719632
H     -3.801616    2.935946   -0.115203
H     -2.990290    2.733482   -1.719979
H     -2.866122    4.309272   -0.904146
H     -3.761499   -2.878123    0.112596
H     -2.206355   -3.459360    0.909640
H      2.309493   -2.770999   -1.075061
H      1.117747   -2.914763    0.307280
H     -2.170831   -1.490611    1.870480
H     -3.269274   -0.644232    0.630221
H     -2.527039   -2.246879   -1.834605
H     -1.568287   -3.741921   -1.309727
H      0.284873   -2.846773   -2.237828
H      0.595232   -1.120752   -2.051420
H      3.799290   -1.324180   -0.974890
H      1.080851    1.981077    1.447326
H     -1.742713    0.518824   -1.745116
H      5.743353    3.065380    0.246971
H      4.568265    3.068457   -1.164433
H     -0.215121   -0.926321    1.937700
H     -2.087022    0.463302    1.823268
H     -1.473453    1.978007    3.139444
