26

C      1.331733    0.353806    0.775548
C     -3.357720    0.273045    1.365895
C     -0.660529   -1.795007   -0.691907
C      2.672658    0.584063    0.991605
C     -0.504827   -0.278863   -0.721322
C     -2.552818   -0.077663    0.161756
C      3.614668    0.441473   -0.008433
C      1.839527   -0.158989   -1.413313
F      3.112425    0.963980    2.214475
N      4.883663    0.658777    0.193675
N      3.150648    0.062314   -1.216577
N      0.910112   -0.023320   -0.445636
O     -3.236267    1.647571    1.570799
O      1.357118   -0.552608   -2.667199
O     -1.218988    0.238769    0.316095
S     -2.373912   -1.900554   -0.024388
H      0.601186    0.467781    1.563904
H     -3.056671   -0.262899    2.280194
H     -4.437101    0.079301    1.153825
H      0.052885   -2.286570   -0.040290
H     -0.693589   -2.143920   -1.725376
H     -0.770227    0.150269   -1.693184
H     -3.020349    0.293472   -0.744758
H      5.159735    0.947737    1.152275
H     -3.720853    2.183678    0.910747
H      0.917491    0.134358   -3.258410
