65

C     -4.769519    1.586979    1.634444
C     -2.405006    2.139485    1.532832
C     -4.126970   -2.117621    1.057737
C     -4.399839   -2.085826   -1.350569
C     -3.951097    0.968183   -2.823089
C     -5.763753    0.559464   -1.144409
C      7.895370    1.133148   -0.259240
C      0.647960   -1.244100    1.590413
C      3.060762   -1.506415    1.790658
C     -0.493966   -0.778829    0.994601
C      4.266758   -0.595929    1.513654
C      5.865949   -0.123778   -1.894078
C      4.581888    0.293458   -2.585875
C      0.840592    0.278273   -0.644482
C     -3.405462    0.980404    1.439835
C     -3.499963   -1.621891   -0.227613
C     -4.380074    1.053771   -1.396952
C      6.623929    0.584970    0.343811
C      1.879829   -0.940568    1.058069
C     -0.411236   -0.007462   -0.136765
C      2.021164   -0.165013   -0.083442
C      4.439518   -0.564489    0.040352
C      3.318516    0.188464   -0.687255
N      5.653029   -0.026293   -0.464409
O      6.538554    0.731041    1.589006
O      3.439214   -0.204796   -2.018772
O     -1.555424    0.474083   -0.756263
Si    -3.168919    0.192568   -0.228479
H     -5.511344    0.882039    2.054277
H     -5.150864    2.145319    0.760979
H     -4.640276    2.371901    2.438410
H     -2.907329    3.064924    1.133932
H     -1.551755    1.930048    0.874560
H     -2.044372    2.266681    2.564303
H     -5.228639   -2.017923    0.963948
H     -3.741992   -1.606382    1.946500
H     -3.909970   -3.209575    1.149281
H     -4.266731   -1.557952   -2.293044
H     -4.124506   -3.162820   -1.558120
H     -5.454372   -2.133858   -0.990335
H     -4.774063    0.493436   -3.411019
H     -3.019997    0.381093   -2.929110
H     -3.831672    1.986895   -3.273763
H     -6.468572    1.443245   -1.114829
H     -6.163667   -0.069949   -1.966581
H     -5.907843    0.063934   -0.163272
H      8.251182    0.364005   -1.002855
H      8.698424    1.190185    0.502540
H      7.669200    2.097208   -0.740526
H      0.579108   -1.858310    2.491517
H      3.278110   -2.496441    1.364088
H      2.873790   -1.497678    2.865830
H     -1.469682   -1.036523    1.441406
H      4.083481    0.410908    1.919179
H      5.179855   -1.078112    1.940633
H      6.125617   -1.179253   -2.118041
H      6.651839    0.576988   -2.243329
H      4.597248    1.393176   -2.689437
H      4.647619   -0.117256   -3.632940
H      0.909694    0.888292   -1.539476
H     -3.216098    0.330461    2.290024
H     -2.538457   -2.205641   -0.340220
H     -4.329479    2.142408   -1.095083
H      4.396976   -1.641227   -0.316021
H      3.567729    1.264473   -0.564624
