30

C      3.810607    1.316909   -0.699657
C      2.773360    1.137045    0.393367
C     -0.079638    0.002090   -0.607353
C     -1.389596   -0.584989   -1.162381
C     -0.599520   -1.205061    1.494038
C      0.403559   -1.057292    0.364751
C     -2.398768   -0.266195   -0.045696
C     -1.891889   -0.612705    1.183567
C      2.704025   -0.276070    0.823680
C     -4.313948    0.461444    0.967686
N     -5.494195    0.956003    1.142872
N      1.729421   -1.013380    0.759165
N     -3.593637    0.257362   -0.091296
O      3.905209   -0.818653    1.366797
S     -3.262499   -0.131847    2.298866
H      3.471573    2.036256   -1.481253
H      4.045132    0.346813   -1.204788
H      4.717870    1.744662   -0.228406
H      3.076183    1.720097    1.316931
H      1.856169    1.586473    0.052569
H      0.642692    0.153887   -1.415197
H     -0.381520    0.951182   -0.093245
H     -1.295867   -1.685504   -1.238398
H     -1.687066   -0.151172   -2.107789
H     -0.740524   -2.269695    1.769725
H     -0.130662   -0.719900    2.386286
H      0.262741   -2.030766   -0.227381
H     -5.976639    1.255196    0.269360
H     -4.009923    0.538307   -1.067763
H      3.847350   -1.640498    1.978069
