65

C     -2.664289   -2.465825    0.866862
C     -3.024928   -2.221808   -1.537019
C     -4.786085    1.421729    1.390644
C     -5.657828   -0.506331    0.052323
C     -2.239984    2.234013   -1.782533
C     -4.434893    1.259503   -2.163108
C      5.970215   -2.037966   -0.933133
C      0.836347   -0.580257    2.836399
C      3.313582   -0.836897    2.537293
C     -0.394992   -0.119323    2.412304
C      4.080507   -1.140505    1.214384
C      5.448469    1.793881   -0.780335
C      4.071932    2.387472   -1.080028
C      0.586533    0.825807    0.500968
C     -2.319569   -1.642919   -0.342580
C     -4.519758    0.048859    0.845651
C     -3.041734    0.934852   -1.732457
C      5.987394   -0.574241   -1.097411
C      1.972966   -0.334012    2.076680
C     -0.551450    0.591392    1.240736
C      1.841190    0.371421    0.906974
C      4.306645    0.187508    0.610152
C      2.968945    0.699073    0.013320
N      5.249805    0.367865   -0.413835
O      6.821698   -0.153582   -2.019608
O      3.147815    2.078854   -0.118619
O     -1.796174    1.017657    0.879795
Si    -2.909956    0.110046   -0.092187
H     -2.703195   -1.846462    1.775280
H     -1.898173   -3.266535    1.008241
H     -3.633371   -3.001237    0.771236
H     -3.797467   -2.984487   -1.225144
H     -3.505342   -1.489884   -2.186060
H     -2.323646   -2.808565   -2.190092
H     -5.868173    1.653939    1.494040
H     -4.257064    2.224802    0.809705
H     -4.363000    1.488286    2.413681
H     -6.275700    0.330001   -0.359722
H     -5.364327   -1.248753   -0.690623
H     -6.357196   -1.027311    0.769089
H     -2.697987    2.904311   -2.538561
H     -2.287973    2.766156   -0.810084
H     -1.200833    2.043779   -2.116321
H     -4.933860    1.972417   -1.476740
H     -4.332588    1.832053   -3.132261
H     -5.050702    0.381411   -2.421213
H      6.424286   -2.535350   -1.843163
H      6.581788   -2.407758   -0.080814
H      4.952058   -2.423091   -0.813614
H      0.960920   -1.131726    3.744507
H      3.885979   -0.008535    3.000190
H      3.222320   -1.730676    3.149924
H     -1.262246   -0.333788    3.037652
H      4.982037   -1.695169    1.442527
H      3.305558   -1.707676    0.629352
H      5.906061    2.268799    0.110610
H      6.037061    1.875558   -1.698373
H      4.206329    3.490054   -1.087909
H      3.778848    2.098883   -2.103203
H      0.462335    1.386792   -0.423520
H     -1.224398   -1.672814   -0.570229
H     -4.350691   -0.645837    1.716361
H     -2.591549    0.295919   -2.546133
H      4.527396    0.958933    1.432257
H      2.784103    0.277295   -0.975256
