30

C      4.597531    0.852241    1.058936
C      3.846013   -0.482519    1.035266
C     -0.741027   -1.532983    0.142766
C     -1.857240   -1.371832   -0.893550
C     -0.325909    0.887735   -0.046826
C      0.264900   -0.462252   -0.188559
C     -2.606585   -0.113827   -0.427059
C     -1.772134    0.882241   -0.051477
C      2.646982   -0.373452    0.195496
C     -4.404156    1.204295    0.061507
N     -5.620363    1.628655    0.216924
N      1.447603   -0.566641    0.626725
N     -3.904914    0.044500   -0.371586
O      2.772607   -0.043348   -1.152701
S     -2.910916    2.152100    0.421054
H      3.853416    1.590680    1.463981
H      4.765399    1.120096   -0.003107
H      5.503074    0.792742    1.658254
H      4.561280   -1.200925    0.540859
H      3.619324   -0.792201    2.054849
H     -0.317401   -2.547466    0.106995
H     -1.217617   -1.377680    1.133368
H     -2.509834   -2.234375   -0.959017
H     -1.372231   -1.163423   -1.853565
H      0.014435    1.318149    0.940755
H      0.029845    1.528111   -0.885735
H      0.602359   -0.685160   -1.244019
H     -6.443828    1.044572   -0.004353
H     -4.644969   -0.712968   -0.657630
H      2.124354    0.614935   -1.611411
