50

C     -5.986274    1.973592    2.189391
C     -5.357651   -3.222481    0.244533
C     -2.656413    0.929366   -0.072696
C      3.849807   -1.097527   -0.617472
C     -3.753994    1.291266    0.678373
C      5.036245   -1.481398   -0.002680
C     -3.425902   -1.277006   -0.292689
C      4.198511    1.132824    0.053384
C      0.659253    0.880930    0.712003
C      0.765772   -0.470375   -2.691993
C      7.523866    0.674571    1.537478
C     -2.429737   -0.328128   -0.586216
C      3.412159    0.209364   -0.600490
C      0.933974    0.060795   -0.483643
C     -0.119960    0.160050   -1.559178
C     -4.710219    0.324971    0.943638
C      5.828572   -0.554928    0.655327
C     -4.528087   -0.949412    0.450341
C      5.393950    0.751879    0.674068
C     -1.278308   -0.723961   -1.359308
C      2.138646    0.571541   -1.270823
O      0.558830    2.228781    0.500790
O     -1.287619   -1.882747   -1.868211
O     -5.823041    0.665181    1.697019
O     -5.500978   -1.895509    0.731139
O      2.026308    0.004318   -2.504989
O      7.040599   -0.659096    1.343621
O      6.353070    1.462343    1.384608
H     -7.012385    2.153941    2.565560
H     -5.840174    2.717109    1.363611
H     -5.204377    2.197898    2.943730
H     -4.488964   -3.736001    0.733349
H     -6.250690   -3.819327    0.428554
H     -5.140547   -3.228444   -0.847198
H     -1.937151    1.720401   -0.268590
H      3.232279   -1.822217   -1.130863
H     -3.867830    2.303852    1.052370
H      5.374798   -2.511195   -0.019751
H     -3.310633   -2.304440   -0.671973
H      3.880943    2.164838    0.083225
H      1.478761    0.688237    1.509004
H     -0.237706    0.488889    1.234410
H      0.752545   -1.553219   -2.448605
H      0.320961   -0.265760   -3.665496
H      8.213198    0.976690    0.730477
H      8.001051    0.798333    2.521121
H      1.101702   -1.006405   -0.192156
H     -0.329351    1.178139   -1.819009
H      2.015893    1.662668   -1.375125
H      0.386294    2.416808   -0.444212
