58

C     -4.700205    4.179552    1.396308
C     -3.424571    3.696180    0.753484
C     -1.960900   -3.845188   -1.614386
C     -1.467488   -4.285569   -0.227840
C      4.853652   -0.505871   -1.344236
C     -1.305190    1.526671   -1.408067
C      6.018559   -1.243007   -1.410269
C     -2.156540    0.322407   -1.076669
C     -2.729589   -2.603950   -1.220981
C     -1.002085   -2.918079    0.288015
C      5.177440   -0.199830    0.969349
C      3.158181    0.821162   -0.086982
C      0.509776    1.923963    0.128417
C     -1.393852    0.501149    1.522894
C      4.410915    0.029826   -0.153041
C     -0.945660    2.263579   -0.133974
C      6.784459   -1.475946   -0.304701
C      6.354084   -0.943223    0.908028
C     -1.251475   -0.785341   -0.619441
C     -0.487481   -0.298815    0.595295
C     -2.969730    2.427272    1.335731
C      1.981292   -0.035030    0.206282
Cl     8.272070   -2.405007   -0.332929
Cl     7.315095   -1.226246    2.336880
N     -1.959628   -1.968596   -0.213941
N     -1.801750    1.758077    0.913587
N      0.665878    0.481058    0.316740
O     -3.677802    1.918715    2.268470
O      2.194063   -1.254773    0.355985
H     -4.513544    5.050041    2.061885
H     -5.452277    4.524470    0.633139
H     -5.228385    3.353729    1.950827
H     -2.596643    4.457259    0.842369
H     -3.628031    3.617038   -0.340315
H     -1.065982   -3.566330   -2.208938
H     -2.581542   -4.615576   -2.091122
H     -0.654489   -5.007352   -0.285290
H     -2.363467   -4.617665    0.319403
H      4.313567   -0.374299   -2.273469
H     -0.410239    1.224280   -1.988646
H     -1.885285    2.204581   -2.099837
H      6.367036   -1.667355   -2.363044
H     -2.711938    0.082023   -2.001650
H     -2.889241    0.592009   -0.313763
H     -3.037140   -1.983712   -2.062576
H     -3.678036   -2.977921   -0.735579
H     -0.985013   -3.012579    1.384486
H      0.004269   -2.789223   -0.159958
H      4.899471    0.184827    1.938691
H      3.292345    1.572781    0.721031
H      3.055665    1.379944   -1.032856
H      1.079009    2.181006   -0.786978
H      0.866786    2.501673    0.976389
H     -2.225161   -0.084863    1.925265
H     -0.749609    0.786234    2.394520
H     -1.028659    3.334467   -0.297557
H     -0.510112   -1.032431   -1.397681
H     -0.144873   -1.172198    1.225252
