50

C      5.113173   -2.181915   -2.268250
C      4.146865    3.224551   -1.282901
C      2.175744   -1.034590    0.583145
C     -2.261304    1.336224   -0.024036
C      3.147145   -1.392049   -0.359363
C     -2.778913    1.773723   -1.242240
C      2.651519    1.219192    0.143876
C     -3.790814   -0.450227   -0.001137
C     -1.064287   -2.388647    2.379484
C     -0.859077    0.527908    3.522483
C     -5.681169    0.468558   -3.006355
C      1.915109    0.291052    0.847107
C     -2.759786    0.222067    0.609182
C     -0.932424   -1.009121    1.763152
C      0.056994   -0.226742    2.577089
C      3.871464   -0.447937   -1.050923
C     -3.812668    1.096973   -1.851039
C      3.607881    0.877432   -0.783782
C     -4.318617   -0.020849   -1.223587
C      0.920223    0.677510    1.803774
C     -2.180605   -0.201887    1.893480
O     -1.503614   -2.343587    3.680016
O      0.756658    1.929607    2.013903
O      4.840111   -0.826998   -1.991062
O      4.327322    1.847110   -1.470205
O     -1.980177    0.849165    2.758069
O     -4.527870    1.289422   -3.049413
O     -5.334862   -0.505906   -2.034024
H      5.718977   -2.296761   -3.190121
H      5.686314   -2.677984   -1.456924
H      4.170005   -2.775238   -2.399639
H      5.042981    3.774939   -1.651744
H      3.941610    3.509885   -0.230797
H      3.280811    3.629053   -1.880925
H      1.641466   -1.828206    1.099128
H     -1.451467    1.913295    0.399226
H      3.349241   -2.448150   -0.564229
H     -2.393930    2.649262   -1.749108
H      2.436768    2.266560    0.361222
H     -4.184181   -1.321048    0.488773
H     -1.713066   -3.021348    1.716268
H     -0.074339   -2.886723    2.380928
H     -1.120606   -0.051343    4.421046
H     -0.348833    1.484466    3.758120
H     -5.808025   -0.070475   -3.967417
H     -6.595522    1.022621   -2.744909
H     -0.576807   -1.086638    0.710260
H      0.640454   -0.938598    3.208474
H     -2.919781   -0.877577    2.436208
H     -2.466092   -2.570031    3.684378
