33

C     -1.479215   -2.143114    0.721362
C     -2.301956    1.287582   -0.664233
C     -2.499390   -0.067456   -0.039078
C     -1.136948    1.962868    0.079630
C      1.406738   -1.873506   -0.429160
C     -1.232416   -0.920878   -0.126683
C      0.052149    1.114201   -0.181781
C      1.088231   -0.790867    0.555780
C      1.302916    1.566720    0.540460
C      2.156359    0.299348    0.376578
N     -0.166417   -0.179188    0.421623
O      2.700913   -2.347387   -0.117580
O      1.869078    2.627323   -0.156022
O      2.605269    0.243938   -0.939699
H     -1.586184   -3.065002    0.109968
H     -0.656864   -2.267226    1.475986
H     -2.409982   -2.064341    1.320465
H     -1.983013    1.216558   -1.728404
H     -3.226801    1.850875   -0.548588
H     -2.818105    0.079486    1.000677
H     -3.311589   -0.573683   -0.609540
H     -1.438054    1.952997    1.151548
H     -1.021170    3.001671   -0.294096
H      1.485061   -1.486215   -1.465999
H      0.726054   -2.717063   -0.432976
H     -1.133274   -1.167106   -1.205109
H      0.246979    1.060780   -1.252751
H      1.224894   -1.155749    1.594029
H      1.147923    1.757091    1.602390
H      2.941868    0.236064    1.123296
H      3.381430   -1.993752   -0.727700
H      1.597579    3.482912    0.284605
H      2.467938    1.072117   -1.439000
