63

C     -5.265997   -3.751449    0.059488
C     -4.810414   -3.580686   -1.209209
C     -5.158181   -2.714039    0.962915
C      0.662748    4.645603    1.375906
C      0.009416    3.866856    2.485978
C     -4.254833   -2.399420   -1.581857
C     -4.602793   -1.522729    0.603422
C      4.936409   -0.292450   -0.054252
C     -0.576668    0.812360   -2.527559
C      6.267145   -0.658459   -0.155099
C      0.403314    1.441202   -1.580003
C      0.452955    3.751693    0.153740
C     -0.309796    2.512246    1.891273
C      4.503325   -2.111891    1.386814
C      2.649648   -0.539780    0.756130
C     -3.536516   -0.055402   -1.079608
C     -0.292473   -1.441067   -1.523994
C     -1.670573   -0.342634    0.424954
C     -4.147584   -1.353627   -0.666119
C      4.042654   -1.011541    0.714498
C     -1.307881   -0.373255   -1.956092
C      6.704085   -1.763111    0.526837
C      5.816149   -2.481579    1.293435
C     -0.210910    1.487858   -0.198027
C     -0.199291    0.110916    0.439144
C      1.845118   -1.150355   -0.318438
Cl     8.395060   -2.237778    0.405956
Cl     6.404239   -3.892701    2.156789
N      0.515104    2.389285    0.681459
N     -2.150954   -0.114758   -0.872388
N      0.480069   -0.830278   -0.459592
O      2.402532   -1.954872   -1.096980
H     -5.710018   -4.695607    0.356498
H     -4.880103   -4.374277   -1.941922
H     -5.522937   -2.851788    1.978016
H      1.725822    4.763738    1.623582
H      0.148013    5.607588    1.246868
H      0.695025    3.696485    3.344072
H     -0.935866    4.315087    2.841449
H     -3.886368   -2.250405   -2.596319
H     -4.516441   -0.706143    1.309318
H      4.638948    0.591593   -0.614919
H     -0.010236    0.459356   -3.414420
H     -1.334586    1.531645   -2.907660
H      6.954819   -0.074071   -0.768575
H      1.385113    0.955381   -1.593164
H      0.551022    2.494377   -1.897029
H      1.279791    3.954705   -0.550415
H     -0.550089    3.981820   -0.262646
H     -0.126723    1.694878    2.614317
H     -1.372267    2.489612    1.576661
H      3.832084   -2.689804    1.992155
H      2.641994    0.571629    0.702159
H      2.193311   -0.811193    1.741330
H     -3.966777    0.733924   -0.397955
H     -3.875574    0.193510   -2.080048
H      0.317758   -1.734690   -2.392050
H     -0.908430   -2.275506   -1.122542
H     -2.201290    0.248990    1.190793
H     -1.692316   -1.432978    0.641876
H     -1.875524   -0.836315   -2.786821
H     -1.226913    1.913693   -0.310239
H      0.233654    0.090603    1.438110
