41

C     -3.276915   -1.965175   -1.200701
C      4.213755   -3.107611   -0.643534
C     -1.866615    2.442545    0.648636
C      1.535743    1.192341   -0.051395
C     -2.785764    2.723538   -0.332490
C      2.459100    1.410991   -1.064371
C     -2.099265    0.137318    0.231384
C      2.341714   -1.005335    0.199606
C     -1.210187    0.425336    3.322641
C     -1.485499    1.155890    0.972274
C      1.466239   -0.015411    0.590690
C     -0.493220    0.818060    2.029002
C     -3.380504    1.720109   -1.051581
C      3.321000    0.388773   -1.426971
C     -3.021952    0.416112   -0.753750
C      3.271063   -0.842358   -0.792566
C      0.483144   -0.208164    1.636550
O     -0.248672    0.117987    4.281224
O     -4.307271    2.014053   -2.040084
O      4.241278    0.625903   -2.445705
O      0.515501   -1.343884    2.208868
O     -3.610448   -0.632725   -1.469266
O      4.157932   -1.828714   -1.196556
H     -2.269703   -2.159030   -1.592180
H     -3.270519   -2.146631   -0.103631
H     -4.031592   -2.604611   -1.712959
H      4.852047   -3.741181   -1.303853
H      3.224598   -3.612944   -0.571476
H      4.704768   -3.022237    0.355204
H     -1.393160    3.254741    1.222030
H      0.895304    2.024082    0.194220
H     -3.043914    3.744171   -0.541109
H      2.496001    2.364685   -1.554060
H     -1.798624   -0.862666    0.487747
H      2.326022   -1.977730    0.677303
H     -1.787898    1.282991    3.724468
H     -1.921178   -0.398697    3.167407
H      0.031441    1.763037    2.288805
H      0.648231    0.289056    3.948608
H     -4.739660    1.276116   -2.563476
H      4.857677   -0.112730   -2.701410
