72

C      1.546840    1.643267   -2.029425
C     -0.386807   -1.773452    1.815983
C     -6.207134    0.233808    1.626846
C     -5.897959   -0.758717   -0.560361
C     -2.821263    0.359966   -1.385608
C      6.311873    1.843481    2.091962
C     -4.269879    2.491375   -0.355676
C      0.223410   -0.365090   -1.021864
C     -2.726540   -1.984030    1.663055
C     -0.268336    0.494542    0.068154
C     -3.786047   -1.631254    0.664366
C      2.669102   -0.408295   -1.442191
C     -5.472490    1.653045   -0.206785
C     -3.059680    2.052846    0.382717
C      3.958707    0.190953   -1.903256
C      7.799833   -2.108184    0.656136
C      4.983026    1.249044    0.084708
C      1.523715    0.259877   -1.493932
C     -1.521618   -1.188245    1.399214
C     -1.545989    0.121565    0.763719
C     -3.965100   -0.113166    0.788153
C      5.828582   -0.692282   -0.481694
C      6.185555   -1.897576   -1.035795
C      6.470776   -0.201377    0.650826
C     -5.309093    0.305037    0.372760
C     -2.800468    0.577249    0.096497
N      7.186616   -2.591373   -0.437426
N      7.449209   -0.929667    1.195415
N      5.528723   -2.374267   -2.189023
N      5.938698    0.984951    0.978901
N      4.912488    0.227090   -0.808401
O      4.459683   -3.186431   -2.060871
H      2.174137    2.240796   -1.310390
H      1.992274    1.687479   -3.056864
H      0.544683    2.087491   -2.113211
H     -0.377842   -2.729088    2.291590
H      0.531914   -1.242569    1.668247
H     -5.591142    0.552138    2.504542
H     -7.022204    1.005851    1.552751
H     -6.605294   -0.766487    1.785803
H     -6.603453   -0.223392   -1.258679
H     -6.539669   -1.476182   -0.010632
H     -5.163290   -1.251133   -1.189443
H     -2.671203   -0.675805   -1.670638
H     -2.152563    1.110355   -1.842524
H     -3.837645    0.643490   -1.754738
H      7.386196    1.720036    2.281326
H      6.025355    2.891397    1.826376
H      5.741359    1.503422    2.982253
H     -4.461977    3.561188   -0.030477
H     -3.966639    2.639361   -1.435995
H      0.504015   -1.370095   -0.662113
H     -0.375982   -0.403026   -1.952355
H     -3.110295   -1.655081    2.667708
H     -2.519244   -3.084960    1.679229
H      0.552859    0.593897    0.822496
H     -0.367385    1.524116   -0.347048
H     -4.734090   -2.083464    1.011579
H     -3.464363   -1.956925   -0.318445
H      2.689361   -1.408643   -1.056579
H     -5.967519    1.567005   -1.221631
H     -6.242171    2.258703    0.362584
H     -3.214057    2.120583    1.491964
H     -2.213445    2.689263    0.117622
H      3.804635    1.249809   -2.226553
H      4.360914   -0.317701   -2.796624
H      8.597032   -2.657688    1.135021
H      4.356588    2.121834    0.053948
H     -1.511214    0.836229    1.693685
H     -3.824799    0.107389    1.869038
H      5.824193   -2.140301   -3.166673
H      4.513542   -3.753982   -1.235070
