33

C     -3.648970    0.732072   -0.666950
C     -1.915722   -2.066141   -0.903392
C      4.280144    1.292016   -0.084341
C      3.053054    1.831815    0.162715
C      4.450058   -0.044993   -0.276151
C     -1.813429    1.391156    0.820325
C     -2.980023    0.483414    0.691436
C     -1.638248   -1.399873    0.446166
C      1.957197    1.018334    0.221595
C     -0.507687    0.754084    0.549515
C      3.316151   -0.884530   -0.214954
C     -0.463318   -0.532508    0.382370
C      2.059377   -0.349755    0.035824
C      0.661886    1.613917    0.485620
C      0.844842   -1.152821    0.113386
O      3.502199   -2.211761   -0.407907
O      0.555406    2.860668    0.656869
O      0.931118   -2.391031   -0.053835
O     -2.766638   -0.826513    0.945204
H     -2.917350    0.937731   -1.455156
H     -4.368099   -0.075853   -0.909171
H     -4.282351    1.664808   -0.590081
H     -0.953246   -2.287665   -1.432694
H     -2.495897   -1.421825   -1.574534
H     -2.416923   -3.040325   -0.743967
H      5.131432    1.979179   -0.123192
H      2.930796    2.893331    0.313148
H      5.391585   -0.503679   -0.471278
H     -1.759034    1.868021    1.827604
H     -1.914710    2.237834    0.096873
H     -3.751786    0.839588    1.439770
H     -1.371658   -2.259740    1.130952
H      2.899843   -2.948955   -0.411767
