41

C     -2.668142   -2.629073   -1.271381
C      4.627769   -2.058156   -1.059974
C     -2.220721    1.858469    1.062702
C      1.311905    0.669300    1.434977
C     -3.253987    1.148671    1.680891
C      2.114955    0.038442    2.390816
C     -1.900569    0.036063   -0.399883
C      2.560300   -0.372111   -0.260061
C     -1.029608    2.479980   -2.018247
C     -1.532593    1.306431    0.013253
C      1.525435    0.470846    0.088611
C     -0.422843    1.988863   -0.700488
C     -3.604980   -0.109947    1.257641
C      3.142854   -0.799335    2.024366
C     -2.916189   -0.673431    0.200391
C      3.359180   -0.999774    0.680725
C      0.711763    1.102533   -0.938514
O     -2.068953    3.348351   -1.788604
O     -4.639429   -0.773206    1.906004
O      3.917579   -1.406743    3.009566
O      1.003864    0.870797   -2.164590
O     -3.277458   -1.945030   -0.220414
O      4.392183   -1.841836    0.300015
H     -3.386775   -3.344074   -1.769575
H     -2.350531   -1.950865   -2.115758
H     -1.788796   -3.225592   -0.990929
H      3.732940   -2.402610   -1.623803
H      4.969167   -1.125898   -1.573346
H      5.448878   -2.789275   -1.194296
H     -1.939108    2.854972    1.393982
H      0.512004    1.325895    1.721447
H     -3.792454    1.588372    2.506890
H      1.910313    0.223978    3.447934
H     -1.363907   -0.404949   -1.224765
H      2.729710   -0.529604   -1.337360
H     -1.401397    1.633875   -2.629648
H     -0.216477    2.965355   -2.584611
H     -0.204204    2.911016   -0.124935
H     -1.738386    4.275106   -1.565297
H     -4.937364   -1.685405    1.643919
H      4.684069   -2.030399    2.792350
