33

C     -3.968026   -1.833445    0.153107
C     -1.719309    2.407554    0.360067
C      4.396015   -0.504656   -0.642877
C      3.227540   -1.123255   -1.022411
C      4.365521    0.598586    0.131817
C     -1.769177   -1.390080   -0.977210
C     -2.703743   -1.051718    0.168048
C     -1.791520    0.928825    0.648768
C      2.025723   -0.607312   -0.605178
C     -0.475095   -0.760082   -0.596483
C      3.155268    1.170297    0.588526
C     -0.516414    0.317829    0.160817
C      2.000993    0.524961    0.189598
C      0.794687   -1.286500   -1.024215
C      0.701872    1.031742    0.604895
O      3.227645    2.285710    1.366987
O      0.820217   -2.304231   -1.738702
O      0.607026    2.056027    1.327393
O     -2.902317    0.331287    0.070074
H     -4.233447   -2.118777    1.195696
H     -4.839299   -1.296688   -0.254755
H     -3.770706   -2.794256   -0.383327
H     -2.666465    2.796021   -0.067318
H     -0.909991    2.633472   -0.350134
H     -1.546728    2.949440    1.308891
H      5.329433   -0.929392   -0.983756
H      3.221141   -2.015633   -1.647596
H      5.281339    1.082333    0.428524
H     -2.147380   -0.936713   -1.927246
H     -1.667906   -2.488472   -1.106021
H     -2.151055   -1.256121    1.119680
H     -1.906167    0.784508    1.745506
H      2.530324    2.798739    1.758836
