102

C     -6.830764   -0.243084    1.894430
C     -7.192678   -2.301072    0.629544
C     -6.678961   -0.230907   -0.543803
C     -3.414458   -2.078577   -3.081275
C     -3.382115   -0.606794   -2.792839
C      8.739838   -6.469244   -0.438756
C     -1.478667    8.041781   -1.467823
C      9.480222   -5.361431   -0.051435
C     -2.473223    8.238476   -0.562614
C      7.378416   -6.295642   -0.577864
C     -3.169483   -2.961333   -1.930002
C     -0.506727    7.107203   -1.314951
C     -2.270427   -0.166597   -1.934626
C      8.869912   -4.146050    0.181457
C     -2.472538    7.423382    0.576240
C      5.405398   -4.890937   -0.486446
C      4.825108   -3.634464   -0.244035
C      0.452966    5.301269    0.068587
C     -2.567855   -2.551647    0.467997
C      1.119686    3.511254    1.800001
C      4.090549    1.506017    0.028330
C     -0.648973   -0.738791   -0.124048
C     -1.200308    0.475442    1.924599
C      6.767249   -5.062668   -0.341264
C     -2.108651   -2.504265   -0.971130
C     -0.452935    6.252969   -0.184590
C     -1.416773   -1.256643   -1.360443
C      0.382456    4.550826    1.198588
C      7.509061   -3.966049    0.044024
C      5.584872   -2.564099    0.137431
C      0.702140    2.066641    1.370654
C      3.076342    0.416319    0.437665
C     -2.580975   -1.256670    1.173362
C     -0.732698    1.855679    1.732507
C     -1.463515    6.475597    0.703474
C      4.482251    1.220342   -1.374417
C      5.044778   -1.216147    0.394793
C      2.568282    0.555791    1.781997
C     -3.977063   -0.681982    1.235812
C     -6.326735   -1.031470    0.709088
N      5.671491    1.180913   -1.841041
N      6.910064   -2.786850    0.264890
N      1.591026    1.239340    2.128681
N      3.708982   -0.899068    0.231576
N     -4.941519   -1.352958    0.765219
N     -1.588346   -0.301485    0.817792
O     -1.639074    2.664556    1.043874
O      3.429641    0.968530   -2.292319
O      5.867940   -0.323038    0.782714
O      3.253320   -0.148518    2.797569
O     -4.174763    0.548172    1.796696
S     -1.104614    5.249790    1.987294
H     -6.118142   -0.263329    2.747244
H     -7.752762   -0.740785    2.298707
H     -7.156493    0.781179    1.610693
H     -8.223672   -2.121255    0.933288
H     -6.749686   -2.998942    1.398195
H     -7.080323   -2.812791   -0.350666
H     -6.538571   -0.875196   -1.452174
H     -7.755685    0.032010   -0.546754
H     -6.078508    0.673305   -0.664186
H     -2.690015   -2.264742   -3.919627
H     -4.412932   -2.289237   -3.526568
H     -3.363737   -0.054993   -3.754018
H     -4.370083   -0.336457   -2.323238
H      9.206678   -7.433522   -0.626824
H     -1.482323    8.672694   -2.346676
H     10.545057   -5.528059    0.051339
H     -3.249911    8.971820   -0.665015
H      6.767005   -7.141718   -0.880234
H     -3.018893   -3.999069   -2.292967
H     -4.121646   -3.033277   -1.318315
H      0.253854    7.027967   -2.105895
H     -1.646359    0.581263   -2.500154
H     -2.674141    0.434806   -1.082342
H      9.455821   -3.293876    0.481517
H     -3.233959    7.514050    1.354298
H      4.808208   -5.735077   -0.787721
H      3.758343   -3.539789   -0.367952
H      1.323502    5.053729   -0.621528
H     -2.045742   -3.344208    1.068444
H     -3.636029   -2.923301    0.429015
H      2.197042    3.568088    1.581769
H      1.007834    3.499717    2.901774
H      4.890155    1.657378    0.728761
H      3.521446    2.478651   -0.035521
H      0.003346    0.026758   -0.528954
H     -0.110931   -1.641402    0.242517
H     -0.362581   -0.086545    2.455790
H     -2.036556    0.413757    2.694211
H     -1.319700   -3.319822   -1.039743
H     -0.601638   -1.435669   -2.117768
H      0.925378    1.973196    0.278374
H      2.321932    0.504044   -0.399407
H     -2.399024   -1.490846    2.269845
H     -0.793456    2.322490    2.801533
H      6.516123    1.351370   -1.264535
H      3.061554   -1.690370   -0.074235
H     -1.387890    2.565055    0.080302
H      3.645752    0.416524   -3.119280
H      2.911632   -0.162504    3.753556
H     -4.826421    1.215121    1.359970
