94

C    -12.400139    0.611941   -0.998321
C     12.663009   -0.378390    0.488715
C    -10.961657    0.649667   -0.445117
C     11.544738    0.475781    1.041560
C    -10.399948    2.025516   -0.526877
C     10.570131    0.873273   -0.051095
C     -9.037751    2.171625   -0.009203
C      9.449659    1.726635    0.499656
C     -7.882842    1.505455   -0.608469
C      8.526283    2.084021   -0.639338
C     -7.792864    0.029661   -0.680966
C     -7.876011   -0.667662    0.648656
C     -6.819380   -0.287169    1.613195
C     -5.427153   -0.575686    1.117786
C     -5.184375   -2.006651    0.821316
C     -3.836025   -2.416088    0.359387
C     -3.276334   -1.939277   -0.901066
C      7.368971    2.939307   -0.178053
C     -3.047571   -0.516231   -1.172398
C      6.522391    2.278622    0.847057
C     -2.149303    0.199492   -0.190411
C      5.889072    0.966355    0.383581
C     -0.827052   -0.486048   -0.216807
C      4.986833    1.179689   -0.794992
C     -0.276051   -1.052584    0.822167
C      4.354669   -1.873306    0.293350
C      3.500219   -0.787603   -0.393488
C      4.349513   -0.022142   -1.381140
C      1.058528   -1.737027    0.765152
C      1.476177   -2.013968   -0.615175
N      2.552250   -1.614285   -1.176714
O      4.930023   -2.582707   -0.781944
O      5.136566   -0.864232   -2.126893
O      0.830735   -2.995529    1.378590
O      0.642902   -2.796942   -1.451791
H    -13.103034    1.002050   -0.248173
H    -12.638754   -0.458054   -1.192977
H    -12.423072    1.179106   -1.937627
H     13.582224    0.205600    0.301450
H     12.921619   -1.138236    1.251232
H     12.299120   -0.899299   -0.431756
H    -10.388394   -0.159520   -0.898745
H    -11.103087    0.326632    0.632816
H     11.952449    1.352883    1.571036
H     10.979793   -0.133466    1.779263
H    -11.090287    2.688552    0.100711
H    -10.537504    2.472843   -1.551704
H     11.160232    1.414537   -0.826642
H     10.192019   -0.067644   -0.513825
H     -9.040995    1.972958    1.127227
H     -8.771953    3.295081    0.010697
H      9.901690    2.602248    0.977238
H      8.888536    1.085064    1.222897
H     -6.962199    1.835080   -0.006403
H     -7.623704    1.925418   -1.628137
H      9.071037    2.653419   -1.416335
H      8.160058    1.154285   -1.110797
H     -6.684302   -0.157782   -1.000377
H     -8.317297   -0.468097   -1.507220
H     -8.881242   -0.530254    1.126781
H     -7.826496   -1.769353    0.459940
H     -6.865491    0.833678    1.754237
H     -6.969881   -0.707737    2.629520
H     -4.762191   -0.332113    2.014317
H     -5.171422    0.052308    0.269568
H     -5.386481   -2.616431    1.765055
H     -5.983775   -2.429314    0.116429
H     -3.878187   -3.566403    0.329348
H     -3.148565   -2.247925    1.245132
H     -2.276255   -2.477014   -1.076814
H     -3.892488   -2.357360   -1.750683
H      6.765410    3.210173   -1.054649
H      7.721074    3.904190    0.251935
H     -3.860958    0.120521   -1.484436
H     -2.379872   -0.516978   -2.135477
H      7.017399    2.147224    1.826834
H      5.653424    2.965191    1.047027
H     -2.573155    0.288359    0.809591
H     -1.987874    1.226038   -0.581893
H      6.635261    0.210037    0.159484
H      5.232441    0.696893    1.280700
H     -0.308342   -0.504953   -1.164178
H      4.203528    1.963949   -0.535032
H      5.577768    1.723477   -1.607999
H     -0.788995   -1.037209    1.772084
H      5.063517   -1.517004    1.004638
H      3.602834   -2.598259    0.716594
H      3.014647   -0.113488    0.302838
H      3.581344    0.428402   -2.168574
H      1.791400   -1.241810    1.403255
H      4.159988   -2.990573   -1.268507
H      5.775917   -0.342777   -2.674549
H      0.763046   -2.814364    2.357497
H      0.800265   -2.846296   -2.444177
