43

C      1.523987   -1.475113    0.841072
C     -2.295915   -0.699731   -1.006457
C     -2.014113    0.393596    0.000761
C      2.436677   -0.746278   -0.104721
C     -0.761127    1.152370   -0.302154
C      0.228050    2.531435    1.338920
C     -0.801894   -0.801583    1.787271
C     -4.732307   -0.522577   -0.687339
C      0.490002    0.532329    0.166051
C      1.428935    0.081598   -0.912681
N      0.346497    3.347197    2.339971
N     -0.795589   -1.536697    2.843402
N     -4.770335    0.539109   -1.418531
N     -1.992433   -0.114049    1.354810
N     -0.844778    2.417775    0.438822
N      1.186320    1.559381    0.937767
N      0.352553   -0.622697    0.988405
O     -5.814125   -0.918758    0.077408
O      2.136916    1.166079   -1.417650
O      0.836400   -0.649479   -1.912109
O      5.489982   -1.400825   -2.311007
O      5.008245    0.016042   -0.227994
O      5.438167   -2.361642    0.099498
O     -3.561707   -1.254744   -0.696685
O      3.112159   -1.639194   -0.898436
S      4.756978   -1.363269   -0.791451
H      1.999546   -1.701032    1.802302
H      1.242653   -2.438631    0.323246
H     -1.564725   -1.545726   -0.914425
H     -2.285796   -0.234715   -2.004006
H     -2.863397    1.106457   -0.061919
H      3.146162   -0.084202    0.393298
H     -0.754786    1.440661   -1.376796
H      1.201848    3.325676    2.931719
H     -1.686180   -1.619479    3.380147
H     -5.651096    1.107410   -1.423765
H     -2.768035   -0.020482    2.036509
H     -1.611440    3.128028    0.299435
H      2.213123    1.597639    1.170261
H     -6.566245   -0.254102    0.235613
H      1.652679    1.565245   -2.165113
H      1.533235   -1.184518   -2.381192
H      6.374908   -1.818503   -2.226504
