64

C      5.799139   -2.856199   -0.410550
C      5.271948   -3.211606    1.962546
C     -6.364736   -1.551864    1.913618
C     -1.814089    5.328618    0.595209
C     -3.273039   -2.181355   -2.012456
C      2.369045    2.825112   -0.431674
C     -4.536543   -2.507379   -2.470533
C      2.770920    4.015373    0.094554
C      4.685972   -1.027084    0.885419
C     -1.647097   -1.449800   -0.324789
C     -4.093681   -1.701366    0.136018
C      0.114554    3.496280   -0.174404
C     -1.353517    0.489143   -1.916054
C      1.026003   -0.936190   -0.059405
C      5.653778   -2.187268    0.946986
C     -3.014596   -1.776903   -0.724553
C      1.044207    2.541808   -0.576474
C     -1.272517   -0.019895   -0.509780
C      0.123493    0.289767   -0.092536
C     -5.605644   -2.424591   -1.589903
C      1.832291    4.961355    0.492775
C     -5.383538   -2.021710   -0.287398
C      0.494059    4.697492    0.356251
C      3.340967   -1.434935    0.464999
C      0.606135    1.250267   -1.147469
O     -6.860353   -2.757875   -2.078492
O      2.222947    6.167920    1.025945
O      3.067472   -2.630863    0.194832
O     -6.479532   -1.952332    0.560681
O     -0.456099    5.608492    0.739015
O      2.313638   -0.513265    0.348496
O     -0.382117    1.468290   -2.058694
H      6.814130   -3.303358   -0.471097
H      5.746029   -2.119170   -1.245114
H      5.071330   -3.683200   -0.531706
H      5.115069   -4.218279    1.506131
H      4.370938   -2.949069    2.545923
H      6.084231   -3.378607    2.729329
H     -5.663248   -0.696040    2.005324
H     -7.386297   -1.198264    2.228230
H     -6.082770   -2.376474    2.586806
H     -2.159812    4.485891    1.232525
H     -2.372963    6.259814    0.889630
H     -2.124384    5.109034   -0.445831
H     -2.470105   -2.256874   -2.716745
H      3.088332    2.065611   -0.751944
H     -4.668819   -2.819304   -3.500758
H      3.812842    4.252902    0.214859
H      5.110924   -0.235472    0.234553
H      4.633685   -0.588415    1.903338
H     -1.543602   -1.671167    0.767764
H     -0.875171   -2.072963   -0.821382
H     -3.926671   -1.387196    1.155125
H     -0.919455    3.226287   -0.308764
H     -2.371289    0.831618   -2.187780
H     -1.085666   -0.306870   -2.660129
H      1.043172   -1.423825   -1.054765
H      0.638014   -1.595872    0.743978
H      6.661508   -1.807250    1.209429
H     -1.969604    0.595495    0.128135
H      0.198909    0.806155    0.880922
H      1.475328    0.794878   -1.688511
H     -7.642770   -2.704144   -1.458280
H      3.198718    6.366691    1.128273
