53

C      3.216381    2.026874   -0.884604
C      3.361252    2.112360    1.634151
C     -1.903673    1.932106   -1.790914
C     -0.135258    0.315048   -2.072006
C     -4.752700   -2.197009    0.591265
C     -3.871499   -0.050352   -0.085036
C     -2.779445    0.686517    0.657493
C      3.909201    0.002678    0.397987
C     -2.360453   -1.891200    0.702485
C      3.862403    1.495890    0.375538
C     -1.556564    0.457909   -1.515176
C     -3.546183   -1.519794   -0.092971
C     -1.483938    0.329767   -0.034538
C      2.573531   -0.703800    0.311089
C     -1.109800   -1.064071    0.459536
C      2.984496   -2.199384    0.335346
C      0.682441   -0.221172    1.920842
N      1.587284   -0.443050    1.161810
O      2.420565   -2.995655    1.098722
O      3.979581   -2.585324   -0.510070
O      0.801905    0.700421    3.001371
O     -0.529925   -0.897467    1.734975
H      3.821014    2.836777   -1.296274
H      2.205166    2.450244   -0.663012
H      3.158536    1.178827   -1.591616
H      2.313140    2.414803    1.543570
H      4.026000    2.944405    1.953079
H      3.436570    1.345309    2.430416
H     -1.999285    2.093053   -2.871590
H     -0.993724    2.499502   -1.434846
H     -2.730628    2.297152   -1.187577
H      0.533744    0.920877   -1.421405
H     -0.108331    0.842660   -3.070810
H      0.181531   -0.731869   -2.168478
H     -4.617267   -3.290830    0.646469
H     -4.758018   -1.822866    1.635751
H     -5.702575   -1.894814    0.126934
H     -4.823284    0.203865    0.424873
H     -3.997317    0.272186   -1.130459
H     -2.741214    0.268113    1.678528
H     -2.958227    1.751945    0.748160
H      4.488215   -0.328150    1.293083
H      4.543264   -0.313473   -0.481885
H     -2.656995   -1.895760    1.779528
H     -2.086527   -2.942808    0.475094
H      4.962801    1.805774    0.269036
H     -2.245112   -0.205154   -2.037216
H     -3.549379   -1.945825   -1.115934
H     -0.727326    1.069056    0.323837
H      2.238845   -0.615604   -0.784378
H     -0.436079   -1.526998   -0.281651
H      4.293750   -3.540167   -0.642162
H      1.579111    0.568475    3.660179
