121

C     -5.596952   -0.970450    5.060574
C      3.895045    1.800198    1.823459
C      8.312629    1.132320    1.414482
C      4.197985    0.634899   -3.222151
C     -0.710626    2.406806   -4.093594
C     -3.660261   -0.554942   -4.820698
C      8.509168   -2.260992   -2.471094
C     -6.466009    6.234844    2.226238
C     -4.347732   -1.091992    4.216221
C      3.078893    0.669670    1.321657
C      4.091449   -2.040612    3.127238
C     -3.302509    5.369004    0.360401
C     -2.303236    4.429812    0.117173
C     -5.185813    0.654351   -1.062131
C      4.446206   -1.005676    2.408958
C      2.409057   -3.332309   -0.922292
C      3.025056   -2.965856    2.654828
C     -5.928653    0.401716    0.209800
C      2.201978   -3.795662    0.525980
C     -4.900234    3.729766   -0.177735
C      0.208427   -1.132034   -0.995146
C      1.091545    0.659371   -2.836301
C     -3.326722   -1.724706    2.116808
C     -2.321167   -1.306000   -0.133203
C     -4.809034   -1.747354    0.257029
C     -5.661710   -0.776584    2.200155
C      7.010666    0.951109    0.705566
C     -3.533356   -1.131164    0.706406
C     -4.628244    5.020299    0.212451
C     -3.924850    1.439401   -0.820119
C     -3.907989    2.789669   -0.421389
C      1.578797   -1.065825   -1.329655
C     -0.690849   -0.285034   -1.601473
C     -2.605808    3.133679   -0.275584
C      2.038158   -0.173315   -2.251598
C     -0.239000    0.631683   -2.543646
C     -2.662862    0.999981   -0.908407
C      2.917341   -1.666389    0.649274
C      3.867590   -1.500929   -1.704846
C      4.997251   -0.371532    0.136029
C     -2.817792   -0.875670   -2.540755
C      6.382606   -1.301478   -1.645633
C     -4.661592   -1.665777    2.822023
C      3.864871   -0.627723    1.091233
C      2.719070   -1.831081   -0.820585
C     -2.182267   -0.372338   -1.316104
C      5.126856   -1.456415   -0.910156
N     -1.863002    2.056996   -0.568319
N      3.468857   -0.322519   -2.415064
N     -5.842625   -0.884927    0.789619
N      3.143686   -2.975199    1.211815
O      6.626673    1.906363   -0.009623
O     -3.205858   -2.072974   -2.686332
O      6.774310   -0.263250   -2.214818
O     -5.149135   -2.964916    3.101288
O      5.237753   -2.725628   -0.278896
O     -1.166302    1.472112   -3.134157
O     -3.046042   -0.065696   -3.644600
O      7.280336   -2.387180   -1.760457
O      6.247112   -0.175138    0.801730
S     -5.909707    6.224643    0.524592
H     -5.454373   -1.439025    6.075877
H     -6.460077   -1.517678    4.628333
H     -5.912735    0.085376    5.196953
H      4.188075    2.526171    1.031610
H      4.775331    1.560683    2.416131
H      3.234130    2.405986    2.507319
H      8.560088    0.280704    2.058298
H      9.096175    1.218630    0.633969
H      8.319714    2.109137    1.967492
H      3.462722    1.208453   -3.851257
H      4.709872    1.394562   -2.614763
H      4.845924    0.134796   -3.972863
H     -0.463720    1.951643   -5.055812
H     -1.553921    3.128898   -4.307632
H      0.167923    2.988039   -3.747713
H     -4.761644   -0.624582   -4.731204
H     -3.245707   -1.580110   -4.988657
H     -3.388695    0.042909   -5.711604
H      8.734103   -1.212651   -2.720687
H      9.318395   -2.689158   -1.857399
H      8.409808   -2.902271   -3.377625
H     -6.042133    7.159938    2.717099
H     -7.575035    6.393663    2.257756
H     -6.140834    5.389302    2.831005
H     -3.926482   -0.071024    4.121366
H     -3.650961   -1.758016    4.763644
H      2.258182    0.451635    2.034166
H      2.618198    0.981366    0.348891
H      4.566063   -2.237373    4.069404
H     -3.066828    6.380276    0.666838
H     -1.261625    4.701149    0.232597
H     -4.933488   -0.194773   -1.664064
H     -5.861507    1.294343   -1.708321
H      5.246736   -0.347528    2.796304
H      1.542670   -3.533210   -1.552454
H      3.264763   -3.893313   -1.345447
H      2.034916   -2.586692    2.981384
H      3.161672   -4.003016    3.006622
H     -7.016994    0.658383    0.113576
H     -5.543697    1.171737    0.945646
H      1.152387   -3.663132    0.838987
H      2.526016   -4.851679    0.590934
H     -5.925662    3.458996   -0.292265
H     -0.081985   -1.887401   -0.272003
H      1.413387    1.387211   -3.578692
H     -3.054716   -2.778985    1.943707
H     -2.535965   -1.142028    2.585507
H     -2.236726   -2.344893   -0.478114
H     -1.461172   -1.138082    0.588071
H     -5.009838   -2.740016    0.784883
H     -4.935714   -2.006633   -0.777373
H     -6.660942   -1.036028    2.661508
H     -5.480282    0.276615    2.548871
H     -3.609324   -0.030428    0.951128
H      1.890474   -1.373550    1.047394
H      3.948704   -2.336670   -2.487717
H      4.783845    0.559958   -0.413773
H     -0.820477    2.109014   -0.512772
H     -4.401234   -3.611711    3.154896
H      6.052786   -2.759342    0.279320
