43

C      1.448452    1.631754   -0.499848
C     -2.995297   -0.303375   -0.545989
C     -1.960835   -0.520161    0.572295
C      2.535975    0.595631   -0.347592
C     -0.700723   -1.113176    0.040929
C      0.146047   -2.048008    1.947643
C     -0.807900    1.640032    0.849937
C     -5.357419    0.381582   -0.603016
C      0.535017   -0.335322    0.471352
C      1.759068   -0.727392   -0.304763
N      0.261591   -2.817247    2.969749
N     -0.925109    2.919868    0.984428
N     -5.485070   -0.011733   -1.803160
N     -1.813984    0.731043    1.262992
N     -0.474318   -2.378766    0.711446
N      0.631885   -0.689864    1.868145
N      0.362728    1.079240    0.270403
O     -6.328889    1.100492    0.085592
O      1.499400   -1.207101   -1.562029
O      2.537255   -1.612456    0.444010
O      5.995667    1.573568   -1.876364
O      5.587081   -0.405710   -0.243338
O      4.825937    1.826530    0.415467
O     -4.193872    0.094919    0.091988
O      3.446429    0.606759   -1.390058
S      4.974997    0.881447   -0.744136
H      1.765739    2.629692   -0.137695
H      1.189956    1.747895   -1.571320
H     -3.121484   -1.218197   -1.151438
H     -2.684862    0.532925   -1.203477
H     -2.496760   -1.224424    1.277860
H      3.018814    0.766714    0.641943
H     -0.720213   -1.229818   -1.064078
H     -0.128936   -3.779148    2.909871
H     -0.176866    3.550106    0.674374
H     -4.729607   -0.547727   -2.277612
H     -2.439815    0.961465    2.049581
H     -0.703671   -3.338164    0.386847
H      0.973715   -0.119536    2.682472
H     -7.042141    1.584018   -0.449413
H      2.204167   -1.897507   -1.769212
H      2.784377   -1.198052    1.300414
H      6.803479    1.887204   -1.364492
