125

C     -6.395423   -3.674079   -2.439184
C      3.043603    2.233366    2.369421
C      7.785024    3.345658    0.424243
C      4.394986   -3.494604    0.246522
C     -0.119464   -4.351451    2.846271
C     -0.642616    1.209503    3.745664
C      8.123926   -2.139165    1.193017
C     -4.593067    6.469429   -2.055753
C     -6.390507   -2.253953   -1.943487
C      2.531492    1.529644    1.162729
C      3.650030    3.500592   -1.530826
C     -3.696700    2.961748   -3.137947
C     -2.897272    1.856168   -2.937452
C     -4.100073    1.166090    1.767976
C      3.661927    3.047589   -0.295698
C      2.397851   -0.723901   -2.731598
C      3.486947    2.696330   -2.762050
C     -5.534915    0.724530    1.604932
C      3.003543    0.467692   -3.455767
C     -4.382438    2.872600   -0.863443
C      0.357555   -0.715245   -0.217451
C      1.422242   -2.840600    1.091918
C     -4.924514   -2.993600   -0.157075
C     -2.726968   -2.297931    0.969493
C     -4.981852   -1.646018    1.801131
C     -6.263151   -0.857330    0.041971
C      6.713543    2.389830    0.867256
C     -4.114035   -1.960409    0.590146
C     -4.450402    3.490469   -2.115716
C     -3.347865    0.986526    0.492671
C     -3.575293    1.758888   -0.668767
C      1.704204   -1.078853   -0.409867
C     -0.465513   -1.405230    0.620983
C     -2.844388    1.258207   -1.686946
C      2.249510   -2.148918    0.245691
C      0.101690   -2.504018    1.294491
C     -2.467473    0.029680    0.151790
C      2.821579    0.993236   -1.218021
C      4.011744   -1.207073   -0.866635
C      4.792150    0.942384    0.267574
C     -1.634324   -0.561099    2.411821
C      5.991717   -1.101926    0.593823
C     -6.253270   -2.282869   -0.435740
C      3.500205    1.584135   -0.030572
C      2.749250   -0.488183   -1.254643
C     -1.873374   -1.056499    0.980418
C      5.098914   -0.370478   -0.360515
N     -2.181419    0.212956   -1.182179
N      3.600862   -2.350245   -0.095458
N     -5.833517   -0.610943    1.372286
N      3.579449    1.298035   -2.407934
O      6.598998    2.069450    2.074481
O     -2.004356   -1.138867    3.420017
O      5.597652   -1.443306    1.744773
O     -7.344031   -2.994606    0.045786
O      5.939429   -0.080779   -1.475781
O     -0.661278   -3.259862    2.169584
O     -0.928923    0.649852    2.475543
O      7.296678   -1.448720    0.279209
O      5.843217    1.851547   -0.036898
S     -5.475890    4.915461   -2.381898
Cl     0.689165    0.000000    0.000000
Cl     0.687560    0.000000    0.000000
H     -6.439891   -4.429310   -1.635311
H     -7.247263   -3.892394   -3.127721
H     -5.413791   -3.846099   -2.958418
H      3.976223    2.778991    2.268833
H      3.194695    1.534255    3.244237
H      2.242573    2.933611    2.754570
H      7.584604    4.354551    0.826075
H      8.782709    2.955667    0.730222
H      7.763221    3.403382   -0.684842
H      4.014419   -4.430902   -0.282267
H      5.439847   -3.421333   -0.118359
H      4.319351   -3.797649    1.322491
H     -0.934027   -4.783119    3.482341
H      0.724690   -4.069434    3.505215
H      0.168353   -5.136517    2.117595
H     -0.417193    0.350688    4.422197
H     -1.469316    1.783090    4.166006
H      0.293216    1.812798    3.667165
H      9.016651   -1.467480    1.350919
H      8.437927   -3.088956    0.701502
H      7.680692   -2.294933    2.177056
H     -4.855016    6.890628   -1.068268
H     -4.982296    7.200156   -2.811803
H     -3.513285    6.390948   -2.242100
H     -5.606754   -1.626663   -2.416898
H     -7.416765   -1.838239   -2.149692
H      2.349539    0.476513    1.461680
H      1.575702    1.943149    0.809052
H      3.773308    4.588004   -1.674265
H     -3.770925    3.469636   -4.111494
H     -2.326750    1.478326   -3.764429
H     -4.179974    2.288199    1.950204
H     -3.587756    0.794768    2.608127
H      3.791206    3.764492    0.517616
H      2.994402   -1.616884   -3.044769
H      1.325291   -0.830913   -2.891769
H      2.506991    2.921754   -3.235979
H      4.296038    2.994663   -3.460143
H     -6.119752    1.062408    2.515238
H     -5.970980    1.368171    0.794224
H      2.193161    1.012695   -3.997720
H      3.798025    0.190153   -4.153919
H     -4.977135    3.312562   -0.080979
H      0.031652    0.174152   -0.710970
H      1.806959   -3.694554    1.635982
H     -5.156651   -3.809240    0.551823
H     -4.454505   -3.410812   -1.038490
H     -2.789681   -2.628514    2.060729
H     -2.277968   -3.120670    0.410525
H     -5.675307   -2.529621    2.023738
H     -4.461806   -1.514635    2.733551
H     -5.787580   -0.230167   -0.741482
H     -7.351647   -0.549117    0.001976
H     -4.061472   -1.103957   -0.131364
H      1.800247    1.415586   -1.323574
H      4.370250   -1.680365   -1.847366
H      4.861271    0.820660    1.392103
H     -1.576260   -0.383294   -1.812562
H     -8.089816   -2.395717    0.273041
H      6.852738    0.126000   -1.167415
H     -0.689165    0.000000    0.000000
H     -0.687560    0.000000    0.000000
