78

C      3.254491   -1.414265    1.054209
C      1.770869   -1.793415    1.046281
C      3.714767   -0.789476    2.312759
C      0.934352   -0.575221    1.228837
C      5.219000    0.657685   -2.720512
C      5.142050   -0.420382    2.305558
C      4.398009    1.419442   -1.917535
C      6.220018   -0.143177   -2.183164
C     -0.557271   -0.896753    1.216335
C     -4.120551   -3.330390    0.045687
C     -4.978770   -2.453145   -0.570519
C      5.668339    0.642501    1.457966
C      4.521069    1.430441   -0.555807
C      6.334639   -0.124100   -0.808300
C     -0.908899   -1.509119   -0.085915
C     -2.799744   -3.028219    0.187881
C     -4.494419   -1.250238   -1.051869
C     -3.940274    1.419961    1.619111
C     -3.361769    2.363799    0.593817
C      5.520699    0.633219    0.011304
C     -2.341062   -1.806492   -0.307488
C     -3.146338   -0.882856   -0.936175
C     -4.991766    2.112327    2.435736
C     -3.779777    0.925515   -2.442585
C     -2.675152    0.382770   -1.535950
C     -3.213056    2.193799   -3.047654
O     -5.558788    1.428122    3.312383
O     -5.326855    3.423770    2.247048
O     -4.076508    0.070121   -3.473110
O     -3.111205    2.295383   -4.292981
O     -2.806145    3.240310   -2.266470
S     -2.092509    1.642298   -0.429849
C     -0.548693   -0.393341   -0.482582
C      0.506856    0.184177    0.461189
N     -1.811124   -0.408617    0.215083
N      1.737671    0.203885   -0.205931
H      3.761857   -2.439528    0.909733
H      3.483407   -0.896673    0.124705
H      1.605618   -2.573869    1.800099
H      1.536255   -2.285509    0.061934
H      3.482818   -1.533120    3.142165
H      3.058469    0.088994    2.604668
H      1.178202    0.146054    0.416412
H      1.153977   -0.061058    2.204729
H      5.104555    0.662105   -3.808735
H      5.389527   -0.139054    3.393608
H      5.781836   -1.348249    2.167406
H      3.632360    2.024325   -2.424202
H      6.860563   -0.735556   -2.826303
H     -0.713082   -1.649940    2.068588
H     -1.160877   -0.049136    1.533285
H     -4.470597   -4.294089    0.439373
H     -6.021174   -2.743164   -0.656421
H      6.807840    0.667637    1.644012
H      5.389099    1.685208    1.876773
H      3.867933    2.033311    0.072142
H      7.129694   -0.763191   -0.392354
H     -0.356077   -2.463409   -0.279013
H     -0.558541   -0.820676   -0.891810
H     -2.116365   -3.724168    0.677536
H     -5.191684   -0.575814   -1.536467
H     -3.141572    1.041849    2.265316
H     -4.450958    0.602801    1.073861
H     -4.256388    2.710275   -0.010874
H     -3.016664    3.284959    1.114020
H     -4.682447    1.213980   -1.879760
H     -1.820258    0.085626   -2.218379
H     -5.852641    3.928289    2.943120
H     -3.719579   -0.830782   -3.410968
H     -2.112549    3.887354   -2.631879
H     -0.546206    0.293039   -1.355037
H     -0.198852   -1.409505   -0.756207
H      0.534996   -0.374439    1.414385
H      0.149143    1.206070    0.712407
H     -2.469649    0.214316   -0.321154
H     -1.728619    0.030191    1.174523
H      1.971908    0.986747   -0.800616
H      2.402569   -0.532523   -0.056060
