47

C      5.261253   -1.121322    0.617508
C      0.858235   -0.622042    2.651914
C      5.729086    0.103839   -0.109014
C      4.880778    1.282172    0.270269
C      2.947301    1.462489   -1.293040
C      1.639604    1.294571   -1.633841
C      2.538177    0.520689    0.798374
C     -4.676075    1.805007    0.524180
C      3.449178    1.082057   -0.062626
C      0.711688    0.718890   -0.747228
C      1.200634    0.337909    0.477063
C     -3.742090    0.651126    0.240165
C     -4.421565   -0.478048   -0.486548
C     -3.414827   -1.621245   -0.568116
C     -2.254044   -1.098744   -1.386589
C     -1.677181    0.085910   -0.563223
O     -3.907384    2.778168    1.192739
O     -5.611322   -0.867908    0.089078
O     -3.976971   -2.757130   -1.114298
O     -1.282185   -2.040674   -1.612577
O      0.344402   -0.234133    1.396097
O     -0.577790    0.590488   -1.175146
O     -2.681485    1.078127   -0.558264
H      4.323305   -1.461405    0.127351
H      6.014002   -1.937789    0.589834
H      5.027844   -0.853582    1.648852
H      0.069061   -1.006146    3.323948
H      1.306742    0.251966    3.155496
H      1.648896   -1.398796    2.551355
H      6.766769    0.326787    0.214162
H      5.728718   -0.028354   -1.216016
H      5.237596    2.158946   -0.318185
H      5.003082    1.500109    1.346098
H      3.641589    1.913629   -2.006832
H      1.264782    1.599581   -2.604412
H      2.876431    0.204411    1.775649
H     -5.466217    1.508384    1.230940
H     -5.075410    2.265290   -0.378185
H     -3.308071    0.248641    1.171223
H     -4.554612   -0.130043   -1.552489
H     -3.048645   -1.783486    0.472700
H     -2.665864   -0.633265   -2.290963
H     -1.606022   -0.311445    0.460597
H     -3.734278    3.548852    0.599190
H     -6.107668   -1.403030   -0.596458
H     -3.622508   -2.833999   -2.056162
H     -1.056939   -2.005277   -2.594569
