113

C     10.851034   -0.656987   -1.673832
C      5.699202   -2.542478    0.443876
C     -6.796385    2.789172   -1.398527
C     -1.246619   -4.142370    1.110896
C      3.293521   -0.078754    1.260455
C     -0.457080    1.197755    1.956078
C      0.394010    3.593731   -0.367221
C      1.483006    2.894005   -1.095573
C      8.926794    0.521597   -0.549170
C      0.688972   -0.624499    0.112941
C      1.929076   -1.290571   -0.418486
C      7.669209    0.171157    0.210855
C     -1.558420    3.781729    0.997038
C     -2.784031    2.238387   -0.504692
C      4.145071    1.452565   -1.180406
C      8.489339   -1.402014   -1.955761
C      9.529252   -0.806635   -0.998202
C      5.526285   -1.077083    0.097506
C     -7.164135    1.334722   -1.611822
C     -2.347019   -3.182169    0.713367
C     -0.533163    2.961100    0.320417
C     -2.902785    3.308196    0.544067
C      1.775162    1.626246   -0.315004
C      0.511842    0.792271   -0.283167
C      2.794462    0.839065   -1.030124
C      4.885581    0.245977   -1.727882
C     -1.973246    1.052958   -0.040124
C      4.369455   -0.864390   -0.852606
C     -8.383676    1.080975   -0.716099
C     -3.701564   -3.724128    1.033282
C     -8.617893   -0.427048   -0.826156
C     -4.584201   -2.588049    1.498203
C     -7.453685   -1.083109   -0.179227
C     -4.332534   -1.294032    0.762513
C     -6.145054   -0.340256   -0.335965
C     -2.889687   -1.011085    0.547567
C      3.116780   -0.382813   -0.196738
C     -0.608193    1.471364    0.461018
C      6.714996   -0.572204   -0.701739
O     -3.642385    2.912133    1.651075
O     -9.454366    1.798954   -1.204126
O     -3.659838   -4.755312    1.970814
O     -9.771647   -0.731035   -0.086491
O     -4.381742   -2.339598    2.862202
O     -7.769951   -1.261936    1.187429
O      7.336448   -1.668818   -1.248283
O     -6.096995    0.559922   -1.339985
O     -2.182748   -1.939831    1.355246
O     -2.582698    0.267192    0.877129
O     -5.138372   -1.289750   -0.350581
O      6.231661    0.321162   -1.621420
H     11.672840   -0.938366   -0.954418
H     10.985312   -1.375710   -2.535093
H     11.081151    0.361136   -2.005719
H      6.605134   -2.974268   -0.027116
H      4.792927   -3.102556    0.133176
H      5.852561   -2.622027    1.539542
H     -5.934519    2.812233   -0.702240
H     -7.605947    3.360822   -0.893028
H     -6.463386    3.272375   -2.340311
H     -1.557592   -4.842342    1.911070
H     -0.952155   -4.774228    0.244091
H     -0.324206   -3.616559    1.436153
H      2.331785    0.129920    1.751972
H      3.935144    0.807873    1.440741
H      3.678366   -1.003925    1.761330
H     -0.705271    0.170043    2.242470
H     -1.210368    1.822895    2.527684
H      0.513631    1.578870    2.284374
H      0.376425    4.667611   -0.413185
H      2.422369    3.473729   -1.120167
H      1.151136    2.582037   -2.112352
H      9.609677    1.076829    0.127764
H      8.719919    1.193051   -1.412562
H      0.645787   -0.857822    1.177515
H     -0.164855   -1.203221   -0.355188
H      2.090061   -2.230464    0.116361
H      1.872852   -1.505981   -1.507986
H      7.970986   -0.458217    1.071969
H      7.175679    1.113730    0.560488
H     -1.432211    4.869709    0.717133
H     -1.449200    3.787921    2.101262
H     -3.734778    1.879135   -0.889766
H     -2.231452    2.681907   -1.359978
H      4.088192    2.256900   -1.948178
H      4.574232    1.789346   -0.233684
H      8.335634   -0.738757   -2.830922
H      8.896155   -2.367374   -2.305931
H      9.540037   -1.472117   -0.110164
H      5.476942   -0.449060    1.002231
H     -7.509284    1.281762   -2.683781
H     -2.270125   -3.055595   -0.387837
H     -3.448581    4.167288    0.102690
H      2.006875    1.914825    0.706990
H      0.166388    0.781597   -1.363766
H      2.404065    0.513817   -2.006177
H      4.515013    0.103101   -2.766328
H     -1.805550    0.441774   -0.963724
H      4.190749   -1.798813   -1.429177
H     -8.083124    1.330208    0.306578
H     -4.150075   -4.162867    0.120789
H     -8.754053   -0.713899   -1.889449
H     -5.618576   -2.935938    1.396226
H     -7.355211   -2.113150   -0.598191
H     -4.739849   -0.475669    1.427946
H     -6.037586    0.227004    0.624678
H     -2.620997   -1.313090   -0.483070
H     -3.815378    3.736179    2.173839
H     -9.785696    2.391658   -0.477688
H     -3.517782   -4.436049    2.892890
H     -9.889120   -0.043537    0.621101
H     -4.543584   -1.416231    3.118412
H     -7.168559   -0.714834    1.753156
