48

C     -1.725135    2.250537   -1.552793
C     -3.824664    2.513305   -0.372635
C     -2.861963   -3.020619    0.620087
C     -3.914259   -0.795454    0.412814
C      4.841234   -1.309566    0.544398
C      4.611064    0.936733   -0.035700
C      3.482087   -1.434258    0.645426
C      3.231555    0.820275    0.064108
C     -3.425353    0.329220    1.270245
C      6.924338    0.029350    0.087322
C      7.348152   -0.267177   -1.274687
C     -1.531237   -1.170384   -0.389145
C     -2.680425    1.533033   -0.678244
C     -2.916343   -1.704407   -0.168814
C      5.451191   -0.126649    0.202272
C      2.639705   -0.349633    0.402045
C     -2.196069    1.012079    0.615258
C     -1.175778   -0.073660    0.584109
C      0.215854    0.352880    0.421198
N      7.700679   -0.501509   -2.354348
N      1.254794   -0.599421    0.532628
O      0.496253    1.542139    0.187059
H     -1.277055    3.161523   -1.100167
H     -2.354573    2.676396   -2.399174
H     -0.994504    1.616394   -2.092061
H     -4.805878    2.028563   -0.422906
H     -3.792887    3.394263   -1.078824
H     -3.638241    2.955185    0.627877
H     -2.870944   -2.855508    1.699428
H     -1.977138   -3.623183    0.289207
H     -3.754520   -3.647137    0.366445
H     -4.607524   -1.405985    1.064408
H     -4.607838   -0.366733   -0.369075
H      5.517313   -2.157584    0.733833
H      5.053650    1.888639   -0.308591
H      3.095400   -2.410731    0.922295
H      2.627250    1.695271   -0.139329
H     -4.204783    1.116424    1.292546
H     -3.211842    0.030072    2.295928
H      7.211374    1.075335    0.349245
H      7.454440   -0.626135    0.818181
H     -1.369250   -0.854626   -1.438202
H     -0.825608   -2.007811   -0.203994
H     -3.166022    0.734946   -1.299594
H     -3.293831   -2.019582   -1.188461
H     -1.888799    1.799090    1.304132
H     -1.213276   -0.571482    1.602216
H      0.949406   -1.592419    0.731595
