41

C      3.688983   -0.438184   -0.192565
C     -2.492891   -1.581776    0.635615
C     -1.140795   -1.272374    0.718164
C     -3.404105   -0.673740    0.138015
C     -1.584558    0.847728   -0.187801
C      1.467934    0.164399   -0.953061
C     -0.659486   -0.046244    0.305870
C     -2.929296    0.551460   -0.274625
C      0.806546    0.284291    0.397871
N      2.835487    0.429799   -0.859699
O     -3.837999    1.470359   -0.776342
O      0.978234    1.573818    0.899673
C     -0.578144   -0.244277    0.781013
C      0.819379   -0.731247    0.434750
C     -1.460140   -0.182741   -0.395522
C      1.547676    0.229057   -0.410997
O     -0.435253    1.031929    1.329174
O      0.802363   -2.006621   -0.124922
O     -1.711779   -1.233903   -1.028258
O     -2.033320    0.991586   -0.844829
O      2.061661   -0.138597   -1.491271
O      1.679398    1.551258   -0.032866
H      3.238185   -0.850515    0.714447
H      3.924319   -1.331482   -0.839881
H      4.620167    0.093309    0.089347
H     -2.829873   -2.553409    0.968824
H     -0.404807   -1.970243    1.105690
H     -4.466579   -0.913636    0.071896
H     -1.183472    1.813658   -0.508654
H      1.359903   -0.909542   -1.302068
H      0.907135    0.746798   -1.697182
H      1.306233   -0.422537    1.108122
H      3.216512    1.253365   -1.332920
H     -4.261094    2.100108   -0.102066
H      0.845320    1.634589    1.873331
H     -0.962057   -0.906497    1.567475
H      1.341976   -0.849997    1.429031
H     -1.166599    1.647272    1.057573
H     -0.040615   -2.490873    0.046398
H     -2.217984    1.157397   -1.831640
H      2.353438    2.176253   -0.485110
