48

C     -0.527051   -1.754116    2.039369
C     -2.419816   -2.819317    0.918069
C     -3.707497    3.088090    0.645484
C     -4.021280    0.794017   -0.304657
C      4.412500   -0.051372    0.063421
C      3.922384   -0.827956   -2.081636
C      3.068357    0.203049    0.300275
C      2.592199   -0.582803   -1.864176
C     -3.055447   -0.358306   -0.505099
C      6.322042   -0.818127   -1.323204
C      6.927233    0.385757   -1.901371
C     -1.766779    1.853066   -0.338727
C     -1.426698   -1.652534    0.837890
C     -3.233300    2.074821   -0.377973
C      4.870428   -0.569480   -1.124613
C      2.144967   -0.057160   -0.653404
C     -2.165587   -0.361184    0.742668
C     -1.349465    0.881961    0.769718
C      0.122612    0.674598    0.692625
N      7.384769    1.340566   -2.357307
N      0.769027    0.186105   -0.449975
O      0.799360    0.955283    1.705245
H     -0.687372   -2.754456    2.542528
H     -0.740786   -1.003127    2.820917
H      0.537483   -1.751479    1.693975
H     -3.223970   -2.589352    1.634984
H     -2.790755   -3.106875   -0.088548
H     -1.852648   -3.687561    1.311426
H     -4.820183    3.124629    0.623671
H     -3.324392    2.918113    1.650755
H     -3.363891    4.081830    0.275380
H     -4.820064    0.778666   -1.080362
H     -4.544942    0.685797    0.673298
H      5.140608    0.162341    0.839177
H      4.266822   -1.235368   -3.020115
H      2.854537    0.608288    1.269650
H      1.829769   -0.783984   -2.617351
H     -3.645495   -1.295384   -0.553783
H     -2.472440   -0.149483   -1.408722
H      6.804535   -1.078584   -0.355417
H      6.442248   -1.665501   -2.008239
H     -1.305770    1.576946   -1.302141
H     -1.280583    2.831839   -0.049736
H     -0.822599   -1.850141   -0.077063
H     -3.461277    2.537812   -1.385619
H     -2.911341   -0.353791    1.595986
H     -1.560006    1.428476    1.710040
H      0.089554   -0.014608   -1.266794
