41

C      3.245716   -0.119102    0.922259
C     -2.391699    1.349622    0.560515
C     -1.285469    1.287716   -0.259817
C     -3.019133    0.233637    1.070933
C     -1.374379   -1.059623   -0.101649
C      1.713512    0.266858   -0.785661
C     -0.756231    0.063685   -0.605443
C     -2.476151   -0.982939    0.714792
C      0.414284   -0.058168   -1.471225
N      1.959326   -0.554326    0.376210
O     -3.065486   -2.150299    1.198876
O      0.293033    0.794697   -2.567812
C     -0.681870    0.284137   -0.731837
C      0.499911    0.734222    0.092573
C     -1.596338   -0.592739    0.047383
C      1.448335   -0.347883    0.386561
O     -0.298447   -0.319051   -1.917743
O      0.040915    1.320135    1.248206
O     -1.899528   -1.714320   -0.429728
O     -2.106330   -0.194667    1.267181
O      1.713216   -0.595903    1.591204
O      2.056097   -1.099248   -0.625305
H      3.277152    0.992310    0.985584
H      3.479055   -0.576616    1.882555
H      4.026866   -0.398777    0.177544
H     -2.816750    2.317320    0.838674
H     -0.836551    2.220956   -0.630304
H     -3.894161    0.303035    1.719021
H     -0.995893   -2.059393   -0.343920
H      2.547398    0.081005   -1.493132
H      1.778804    1.329701   -0.477706
H      0.509184   -1.099352   -1.872325
H      1.235778   -0.414965    1.124210
H     -2.747421   -2.536309    2.078988
H      1.179215    0.769328   -3.041168
H     -1.255782    1.199274   -0.993632
H      1.044789    1.491241   -0.520702
H      0.507837    0.170449   -2.241102
H     -0.032263    2.306316    1.190209
H     -2.257169   -0.938408    1.963508
H      2.816630   -1.703557   -0.326775
