113

C     10.139722   -0.650917   -0.896441
C      5.858866   -0.161584    3.012776
C     -6.684752   -1.214404   -2.615259
C     -1.863128    0.954688    4.352550
C      3.560436   -1.217934   -0.420731
C     -0.172718   -1.033783   -2.374646
C      0.307140    2.287043   -2.913190
C      1.541374    2.412455   -2.085480
C      8.788227   -1.534226    0.991002
C      0.911828   -0.573903    0.176232
C      2.018337   -0.176993    1.155619
C      7.361814   -1.577188    0.480278
C     -1.757378    1.376745   -3.658303
C     -2.773402   -0.298634   -2.244329
C      4.283301    1.504765   -1.130296
C      8.548317    0.815166    0.383068
C      9.534745   -0.338700    0.446923
C      5.397556   -0.484815    1.585082
C     -7.097799    0.084060   -1.961446
C     -2.768783    0.787535    3.156947
C     -0.585424    1.361030   -2.741867
C     -3.037187    0.896054   -3.088783
C      1.839710    1.038962   -1.481001
C      0.602149    0.587417   -0.744183
C      2.956365    1.219797   -0.538777
C      5.241842    1.235854    0.012888
C     -1.851441    0.200227   -1.101943
C      4.437812    0.549874    1.105791
C     -8.476586   -0.140963   -1.358210
C     -4.020025    0.021228    3.527272
C     -8.402630    0.314543    0.100944
C     -4.088267   -1.217295    2.663477
C     -7.389248   -0.587364    0.756948
C     -4.063288   -0.760618    1.206907
C     -6.067740   -0.440505    0.061458
C     -2.758159    0.015326    0.988792
C      3.256922    0.019294    0.340208
C     -0.488460    0.312596   -1.701690
C      6.621501   -0.286144    0.710677
O     -3.926062    0.595875   -4.138854
O     -9.379856    0.687051   -2.014943
O     -3.971151   -0.305065    4.883784
O     -9.649988    0.279113    0.674132
O     -2.885864   -1.912262    2.874911
O     -7.898832   -1.901872    0.616539
O      7.517417    0.614555    1.300518
O     -6.178201    0.420552   -1.002321
O     -2.069709    0.093849    2.173058
O     -1.994093   -0.590333   -0.005647
O     -5.170325    0.055500    1.014249
O      6.149312    0.283699   -0.443958
H     10.562295    0.269256   -1.348842
H     11.023023   -1.309567   -0.698312
H      9.457911   -1.148015   -1.593701
H      5.533403    0.878291    3.284983
H      5.486589   -0.920749    3.717699
H      6.970143   -0.156269    3.096503
H     -5.670655   -1.185515   -3.057279
H     -6.820364   -2.038468   -1.885261
H     -7.360113   -1.470643   -3.468765
H     -0.982655    1.549390    4.042601
H     -1.500396   -0.048970    4.637109
H     -2.390693    1.466374    5.186149
H      3.173615   -1.222944   -1.457960
H      4.633850   -1.482007   -0.487914
H      3.071237   -2.081968    0.097910
H     -0.686107   -1.877787   -1.897701
H     -0.448080   -1.008659   -3.455129
H      0.916662   -1.201355   -2.256025
H      0.189435    3.025678   -3.686319
H      1.339619    3.132734   -1.282293
H      2.381902    2.749743   -2.693311
H      9.277534   -2.484182    0.688098
H      8.756571   -1.428438    2.098701
H      0.039587   -0.758757    0.801976
H      1.175102   -1.504710   -0.321856
H      2.162799   -0.982093    1.892440
H      1.735070    0.739965    1.701360
H      7.414718   -1.723919   -0.634283
H      6.874969   -2.450580    0.952254
H     -1.942108    2.449479   -3.982226
H     -1.503095    0.858333   -4.624386
H     -2.290326   -1.080816   -2.833268
H     -3.688245   -0.748504   -1.809778
H      4.331211    2.576392   -1.411317
H      4.436155    0.820504   -1.989121
H      8.176230    0.865212   -0.659364
H      9.062429    1.794894    0.561023
H     10.347703   -0.031423    1.127216
H      5.045537   -1.514257    1.507368
H     -7.184705    0.828614   -2.765496
H     -3.011591    1.809862    2.790066
H     -3.532905    1.664327   -2.425269
H      2.127784    0.409703   -2.329204
H      0.307502    1.433480   -0.070599
H      2.701290    2.048213    0.159924
H      5.733903    2.155472    0.390355
H     -2.307565    1.196458   -0.843548
H      4.107573    1.243836    1.890618
H     -8.774674   -1.189338   -1.352260
H     -4.874649    0.691585    3.375555
H     -7.971156    1.356140    0.136490
H     -4.956238   -1.843460    2.880953
H     -7.335822   -0.332043    1.839380
H     -4.130871   -1.647309    0.539658
H     -5.676866   -1.408257   -0.323442
H     -3.087697    1.030637    0.622881
H     -4.751163    1.105558   -4.041951
H    -10.315268    0.354888   -1.984371
H     -4.653338    0.198463    5.384237
H     -9.873845   -0.627595    1.021024
H     -3.072642   -2.862578    2.955176
H     -7.163717   -2.551656    0.809623
