167

C     14.523510   -1.891026   -0.339875
C     16.082164   -0.461094    2.954652
C      0.954671    2.933017    1.786066
C     12.793475    0.818509   -1.774218
C    -12.298289    0.686347   -3.173576
C    -14.620460    0.961313   -1.248698
C      9.504874    0.072658   -2.619853
C     -1.282821   -2.370573   -2.395905
C     -4.450044   -2.619226   -2.325572
C      5.014772   -0.350366    1.638530
C      0.002789    0.044942    2.515100
C      1.084645    0.654109    2.888758
C     -0.670356    0.380184    1.274831
C     -8.468668   -2.449014    1.123281
C     -7.061361   -2.937671    1.063439
C      0.081666    0.351454   -2.397519
C     -1.389052    0.422611   -2.780120
C     14.125027   -0.380381    1.489009
C     12.125978   -1.456591    0.535726
C    -11.398624    2.256035   -1.443852
C     10.822576    1.352926   -0.476014
C    -14.224576   -0.856340    0.331805
C     -9.906124    1.696307    0.402820
C     -8.393232    1.127518    2.300465
C     -5.732403   -0.104532   -1.118156
C      3.354939    0.277940   -0.972408
C      7.943025   -1.064271   -1.136053
C     15.936679    1.307307    1.294450
C     -2.772566   -2.307345   -0.480488
C     13.591314   -1.209634    0.598368
C     15.594860   -0.153951    1.533018
C      1.740774    1.727327    2.123044
C     11.766261    0.354385   -1.050377
C    -11.604204    0.829239   -1.853982
C    -13.703605   -0.162269   -0.897446
C     -9.759627    1.527119    1.898943
C    -11.347792    2.111766    0.060225
C     -8.684240   -1.356687    2.134357
C      0.230180    0.799409   -0.953237
C     -0.071318   -0.290524    0.025451
C     -6.322132   -2.181544   -0.023537
C     11.536915   -1.070975   -0.805317
C     -7.863955   -0.150975    1.764734
C     -6.390206   -0.699448    0.137088
C      2.477611    1.367127   -0.309144
C      6.922365    0.055163   -0.941355
C     -2.242597   -0.182050   -1.727449
C      9.536341    0.615719   -0.174542
C     -4.321319   -0.550586   -1.072829
C      4.764329    0.603153   -0.615936
C    -14.332891    0.016791    1.518818
C    -12.274064    0.218836   -0.683984
C      2.750325    1.246103    1.133254
C      7.355235    0.810456    0.268744
C      6.325729    1.662597    0.902613
C      9.343216   -0.439136   -1.206200
C     -1.712908   -1.489722   -1.213047
C     -4.173545   -2.069238   -0.926327
C      4.976696    0.934446    0.836209
O     15.522386    1.656816    0.019521
O     -9.990374    2.813791    2.444062
O     -8.291097   -1.882185    3.384603
O    -13.450321    0.129858    2.414596
O    -15.475512    0.813913    1.739369
O      6.622826    1.769738    2.271372
O    -12.202475    1.089303    0.392635
O      1.299946    1.528188   -0.803103
O     -7.625618   -0.177776    0.400886
O      5.651958   -0.449250   -0.898865
O     -3.561328   -0.269746   -2.214729
O      8.503691    1.544818   -0.112032
O     -0.668022   -1.392024   -0.387140
O     -5.020953   -2.606596    0.003845
O     10.234116   -1.476293   -0.948282
O      4.050090    1.786609    1.365010
H     15.162927   -1.156780   -0.886965
H     14.026589   -2.509524   -1.092196
H     15.246732   -2.515252    0.262826
H     16.400821   -1.504774    2.988173
H     15.289017   -0.189456    3.666471
H     16.955128    0.185988    3.182927
H      1.479789    3.918061    2.025510
H      0.648298    3.096145    0.760781
H      0.094540    2.977686    2.513489
H     12.948625    1.861836   -1.945192
H     13.467619    0.074397   -2.183590
H    -12.899562    1.604035   -3.346964
H    -11.495158    0.733437   -3.969124
H    -12.818903   -0.251164   -3.339766
H    -15.546437    0.871417   -0.648087
H    -14.953711    0.947082   -2.306020
H    -14.139212    1.911000   -0.948777
H      8.702888   -0.318637   -3.302944
H      9.408727    1.182929   -2.657915
H     10.457540   -0.278037   -3.090379
H     -0.256610   -2.807153   -2.223860
H     -1.337235   -1.856786   -3.351386
H     -1.929819   -3.278961   -2.502560
H     -3.888736   -2.004273   -3.055525
H     -5.528022   -2.427425   -2.534701
H     -4.292160   -3.690130   -2.402680
H      4.472533   -1.164343    1.074707
H      6.024358   -0.723490    1.821932
H      4.541032   -0.203432    2.653225
H     -0.382421   -0.753683    3.200996
H      1.504271    0.295865    3.865447
H     -1.682521   -0.148415    1.338457
H     -0.958870    1.405279    1.086190
H     -9.119088   -3.310571    1.408752
H     -8.771926   -2.145707    0.098607
H     -6.521239   -2.916881    2.027239
H     -7.077837   -3.999479    0.741606
H      0.587888    1.135168   -3.031662
H      0.562102   -0.589919   -2.623542
H     -1.579315    0.106702   -3.800476
H     -1.618231    1.533174   -2.773977
H     13.512798    0.151041    2.203094
H     11.601389   -0.982938    1.389591
H     12.006994   -2.565899    0.716899
H    -10.404562    2.634808   -1.815894
H    -12.151483    2.955308   -1.801215
H     11.231510    1.874972    0.406159
H     10.632962    2.124036   -1.242979
H    -13.622371   -1.769518    0.552185
H    -15.265279   -1.261042    0.160171
H     -9.628811    0.801885   -0.170772
H     -9.277464    2.528083    0.024907
H     -7.698157    1.939047    1.923970
H     -8.277326    1.202125    3.412899
H     -6.275518   -0.416663   -2.030364
H     -5.751623    0.994467   -0.965795
H      3.237501    0.487090   -2.074344
H      3.034882   -0.728644   -0.716884
H      7.876939   -1.809896   -0.320534
H      7.773447   -1.572405   -2.103979
H     15.530416    1.943189    2.086713
H     17.046546    1.385668    1.331462
H     -2.731811   -2.173330    0.613810
H     -2.568334   -3.409466   -0.634546
H     16.160520   -0.792099    0.855650
H      2.435579    2.170243    2.939305
H    -10.565105    0.389832   -1.935127
H    -13.778217   -0.975266   -1.706760
H    -10.568231    0.898334    2.322390
H    -11.620223    3.056045    0.564155
H     -9.775208   -1.121660    2.123624
H     -0.617821    1.552507   -0.818395
H      0.942092   -0.627238    0.411277
H     -6.848971   -2.434717   -0.979207
H     12.146605   -1.640634   -1.567194
H     -6.868800   -0.309686    2.291602
H     -5.695242   -0.428291    0.979910
H      3.047744    2.302706   -0.662950
H      7.053950    0.734621   -1.829707
H     -2.358808    0.515333   -0.851962
H      9.551509    0.115800    0.820714
H     -3.850473   -0.063932   -0.167897
H      5.081195    1.485457   -1.209055
H    -11.735863   -0.702821   -0.384094
H      2.951820    0.162138    1.411995
H      7.729566    0.081906    1.044180
H      6.193373    2.655923    0.460474
H     16.167287    1.232613   -0.624684
H    -10.270368    2.674068    3.404419
H     -9.102118   -2.042271    3.909543
H    -15.743502    1.090326    2.681382
H      7.531381    2.092667    2.404281
