60

C     -2.082722    2.714594   -1.572766
C     -3.857828    0.771335    2.422975
C     -3.699739   -2.064901   -1.731934
C     -5.372737   -0.397121   -1.189687
C     -1.593632    0.560291   -0.322038
C     -2.935316    0.353193   -0.246523
C      0.181200    1.991900   -1.085514
C     -5.003790   -1.348980    2.232829
C     -5.352517   -2.514491    0.024016
C      6.091362    1.267726    2.280173
C     -1.088166    1.739217   -0.981520
C     -4.145869   -0.495807    1.704390
C     -5.276572   -2.584943    1.518890
C      5.317687    0.508539    1.227681
C      1.205944    1.124200   -0.554901
C      6.338513    0.061136    0.180061
C      5.553629   -0.701199   -0.869861
C      4.497453    0.221047   -1.396545
C      3.625961    0.681653   -0.224915
C     -4.480356   -1.461416   -0.562639
C     -3.508337   -0.843220    0.420693
O      5.249718    1.840519    3.232505
O     -5.440454   -3.665710    2.147158
O      1.069308    0.050616    0.057094
O      7.343721   -0.705817    0.725150
O      6.387677   -1.103124   -1.915341
O      3.698789   -0.372581   -2.368640
O     -2.518571   -1.793320    0.670378
O      4.469340    1.418950    0.611764
O      2.571652    1.483215   -0.717959
H     -2.574491    2.139374   -2.402233
H     -1.556238    3.570312   -1.990514
H     -2.814894    3.046384   -0.828226
H     -4.683816    1.003075    3.136923
H     -3.815759    1.644432    1.733094
H     -2.899001    0.755687    2.964090
H     -2.892437   -1.350391   -2.053837
H     -3.264503   -3.042750   -1.453336
H     -4.378641   -2.149844   -2.603307
H     -5.632078    0.404610   -0.475307
H     -4.921807   -0.008859   -2.125202
H     -6.313015   -0.903127   -1.500377
H     -1.040838   -0.212569    0.138725
H     -3.578313    1.091384   -0.690148
H      0.505479    2.926269   -1.610812
H     -5.508667   -1.162005    3.178584
H     -6.434281   -2.320937   -0.241860
H     -5.067801   -3.504653   -0.408861
H      6.666312    2.070334    1.799981
H      6.833413    0.603011    2.800706
H      4.799098   -0.338887    1.695745
H      6.703582    0.999012   -0.303956
H      5.046974   -1.569774   -0.390192
H      5.007295    1.106859   -1.841723
H      3.193255   -0.191687    0.262431
H      4.564414    1.185992    3.508465
H      8.088663   -0.093244    0.970350
H      7.312127   -0.723145   -1.827387
H      3.400636    0.310966   -3.026900
H     -1.990017   -2.021325   -0.129888
