27

C      3.716963    1.295983    0.385996
C      2.905892    0.046796    0.177475
C      1.422973    0.307952    0.333649
C      0.676052   -0.982137    0.112165
C     -2.878042    1.949535   -1.333082
C     -0.826779   -0.780090    0.257157
C     -2.396144    0.895188   -0.414981
C     -1.527956   -2.069903    0.032594
Cl    -4.463020    1.519927   -1.968897
N     -1.285033    0.244851   -0.645358
O     -3.129343    0.578772    0.719838
O     -2.402904   -2.187651   -0.852768
O     -1.208813   -3.165082    0.817241
H      4.723004    0.996867    0.724976
H      3.762261    1.821048   -0.594470
H      3.201467    1.911821    1.131382
H      3.176000   -0.752711    0.915674
H      3.093680   -0.384196   -0.837861
H      1.243987    0.714769    1.331462
H      1.126977    1.045904   -0.442836
H      0.930826   -1.405218   -0.881034
H      0.994920   -1.732933    0.866678
H     -2.161924    2.088687   -2.168862
H     -2.992193    2.895885   -0.759516
H     -1.022198   -0.429319    1.290755
H     -3.049716   -0.352825    1.090079
H     -1.630935   -4.071920    0.712545
