27

C     -3.953610    0.325709   -0.338891
C     -2.565086    0.483845   -0.868788
C     -1.527492   -0.211621    0.018812
C     -0.185367    0.023535   -0.623130
C      4.042530    1.108416   -1.204684
C      0.930155   -0.587405    0.159870
C      2.723465    0.869901   -0.554846
C      0.814830   -2.056585    0.312349
Cl     3.922985    2.206216   -2.576661
N      2.226836   -0.313469   -0.472892
O      1.996343    1.920085   -0.020919
O      1.696650   -2.822812   -0.198087
O     -0.228544   -2.657668    1.001094
H     -4.118338   -0.682777    0.108506
H     -4.663308    0.536069   -1.171304
H     -4.208960    1.056435    0.464809
H     -2.308939    1.552868   -0.950772
H     -2.518766   -0.042521   -1.851945
H     -1.584354    0.148290    1.063931
H     -1.768393   -1.308458    0.043735
H     -0.212934   -0.502342   -1.621101
H     -0.018218    1.099027   -0.849400
H      4.708881    1.551940   -0.449799
H      4.509097    0.172351   -1.543928
H      0.966149   -0.083345    1.159519
H      1.503711    1.834391    0.850607
H     -0.179323   -3.620077    1.352671
