72

C     -2.894126   -3.249155   -1.838489
C     -6.115688    4.174044   -1.109496
C     -2.958576   -3.525903   -0.349222
C      6.431920    2.602694   -1.463310
C      7.665182    2.779514   -0.869816
C     -6.786773    0.859116    1.545518
C     -5.679187    0.073566    1.895001
C      5.542514    1.663885   -1.021678
C      7.987995    1.970706    0.201589
C     -6.599164    1.925061    0.695985
C     -2.450649    0.394232   -0.611547
C     -2.917715    1.704021    0.002031
C      5.393097   -0.848555    1.671480
C      6.621052   -0.670339    2.252204
C     -1.780033   -3.025394    0.391771
C      0.901185   -1.674146    0.530991
C      2.244254   -1.614930   -1.480796
C      1.458799    0.389498   -0.551004
C     -0.411858   -1.222232    1.133033
C      3.609586   -1.202012   -1.119469
C      2.649939    0.549217    0.368624
C     -3.192494   -0.367144    1.684449
C     -4.433337    0.393218    1.374075
C     -2.655586   -0.785182    0.308530
C     -4.283792    1.466352    0.526311
C      5.901737    0.866879    0.063593
C      7.129029    1.007661    0.691549
C      5.015910   -0.077432    0.565162
C     -5.373744    2.258063    0.170734
N      7.463703    0.249202    1.756105
N      1.144324   -1.025251   -0.743005
N     -1.521951   -1.615423    0.346512
N      3.763086   -0.258268   -0.059433
O     -5.110072    3.302131   -0.675292
H     -3.841937   -2.954168   -2.291781
H     -2.109388   -2.474310   -2.025285
H     -2.513436   -4.154180   -2.395145
H     -6.567732    3.857524   -2.082104
H     -6.955863    4.302387   -0.395036
H     -5.698128    5.213270   -1.287242
H     -2.941000   -4.646539   -0.244328
H     -3.933953   -3.244769    0.093689
H      6.180516    3.234915   -2.297724
H      8.392327    3.521024   -1.207040
H     -7.788561    0.654844    1.923964
H     -5.792852   -0.757318    2.549690
H      4.571585    1.499692   -1.456127
H      8.934438    2.054812    0.712767
H     -7.456861    2.533862    0.421538
H     -3.006932    0.275833   -1.589198
H     -1.406125    0.523091   -0.919922
H     -2.200511    2.058159    0.749799
H     -2.975467    2.406040   -0.863015
H      4.685766   -1.576209    2.031608
H      6.908696   -1.289223    3.130858
H     -1.895556   -3.377027    1.464163
H     -0.892967   -3.557526    0.005495
H      0.902329   -2.775191    0.344919
H      1.701625   -1.513783    1.266925
H      2.143007   -2.707919   -1.346037
H      2.060902   -1.448448   -2.571610
H      1.781803    0.784105   -1.532600
H      0.662918    0.981058   -0.126826
H     -0.491276   -1.555092    2.199948
H     -0.368234   -0.094438    1.176133
H      4.190229   -2.124256   -0.825541
H      4.134854   -0.812555   -2.050516
H      2.897309    1.646517    0.328512
H      2.408724    0.356036    1.419449
H     -2.503967    0.298474    2.212746
H     -3.412589   -1.300607    2.219301
H     -3.562259   -1.305777   -0.124721
