72

C     -0.374086   -3.578632   -2.055728
C     -7.461307    2.033848    2.287868
C     -0.843584   -3.736870   -0.636931
C      6.787891    3.411024   -0.256103
C      8.078673    2.999667   -0.405973
C     -5.434561    2.444083   -1.280526
C     -4.659336    1.404290   -1.728250
C      5.821349    2.474009    0.019945
C      8.393765    1.685186   -0.282275
C     -6.087607    2.252564   -0.085910
C     -3.722600   -1.837642    0.844512
C     -5.088976   -1.205769    0.951534
C      5.556399   -1.130465    0.548185
C      6.862930   -1.505410    0.395639
C     -0.812530   -2.411579    0.118291
C     -0.187907    0.609194   -0.245878
C      1.493751    0.149475    1.411660
C      2.008221    0.285934   -0.972611
C     -1.430505   -0.078973    0.150486
C      2.985435    0.140371    1.657468
C      3.095697    1.275207   -0.514034
C     -3.739256   -0.884965   -1.510247
C     -4.559308    0.220440   -0.980514
C     -3.041288   -1.703616   -0.454597
C     -5.215144    0.047613    0.207662
C      6.102687    1.136824    0.150325
C      7.423141    0.740653   -0.004875
C      5.136611    0.205326    0.429205
C     -5.999899    1.096801    0.662829
N      7.776915   -0.564499    0.121064
N      1.073806    0.069695    0.075774
N     -1.628641   -1.397847   -0.419666
N      3.779392    0.544938    0.539811
O     -6.663565    0.914403    1.875619
H      0.742520   -3.775084   -2.047381
H     -0.800764   -4.312804   -2.770207
H     -0.498443   -2.559897   -2.474348
H     -7.933538    1.862457    3.273653
H     -8.265207    2.249396    1.546937
H     -6.823759    2.964652    2.298030
H     -1.812066   -4.243300   -0.639692
H     -0.150159   -4.404963   -0.052411
H      6.478237    4.458058   -0.346865
H      8.812723    3.791814   -0.629214
H     -5.528864    3.371120   -1.834523
H     -4.130966    1.521947   -2.666493
H      4.812448    2.829749    0.153075
H      9.445173    1.382091   -0.405385
H     -6.701569    3.056498    0.283512
H     -3.901722   -2.926912    1.128127
H     -3.124712   -1.471763    1.714947
H     -5.817807   -1.954064    0.517344
H     -5.315226   -1.082578    2.041359
H      4.801368   -1.846995    0.762011
H      7.163991   -2.554074    0.492362
H      0.230360   -2.132981    0.365512
H     -1.266704   -2.687015    1.125275
H     -0.219382    1.613231    0.318078
H     -0.233995    0.991910   -1.319874
H      1.073960   -0.707326    2.025953
H      1.068007    1.047453    1.962139
H      2.496787   -0.612270   -1.355932
H      1.507299    0.799536   -1.818373
H     -1.493862   -0.111742    1.265403
H     -2.283542    0.542524   -0.193234
H      3.201697    0.841678    2.509437
H      3.305817   -0.867968    2.017819
H      3.699599    1.493248   -1.394854
H      2.581970    2.150232   -0.109016
H     -4.476611   -1.523940   -2.099096
H     -3.003240   -0.537816   -2.273928
H     -3.066377   -2.759383   -0.906074
