66

C     -3.380186   -1.982723    2.963411
C     -2.428937   -0.893621    2.655966
C      5.948860    2.903776    0.762764
C      7.448984   -1.693809   -0.107776
C      6.197353   -1.134076   -0.135254
C      7.188371    2.258251    0.776979
C      4.805226    2.231098    0.461689
C     -4.711439   -0.938303    0.247861
C     -5.855881   -0.944373   -0.747531
C      8.588576   -0.963982    0.208695
C     -1.706100   -0.918137    1.373037
C     -0.246159   -0.265741   -1.209477
C      1.632689   -1.184625    0.005171
C      1.578606    1.064914   -0.842024
C     -1.399866   -1.093617   -0.940645
C      2.906822   -0.691284    0.714215
C      2.903476    0.540822   -1.367401
C     -3.696139    0.429339   -1.516912
C     -3.500033   -0.198059   -0.156651
C      6.070705    0.205126    0.164688
C      7.238771    0.915026    0.477935
C     -6.158525    0.501256   -1.131450
C      4.858056    0.854087    0.156296
C     -5.008576    1.149788   -1.502139
C     -7.347100    2.406902   -1.475448
N     -8.321825    3.250380   -1.552192
N      8.453200    0.333561    0.496020
N     -7.289768    1.122919   -1.122870
N      0.808401   -0.059136   -0.295317
N     -2.265608   -0.765614    0.130175
N      3.629101    0.231184   -0.113401
S     -5.606837    2.768186   -1.860631
H     -4.386793   -1.581871    3.175158
H     -3.366206   -2.820701    2.230368
H     -3.075941   -2.435677    3.969414
H     -1.694565   -0.813350    3.515647
H     -3.009290    0.087336    2.782346
H      5.876086    3.961420    0.991392
H      7.625782   -2.747577   -0.333502
H      5.327966   -1.695985   -0.395644
H      8.075876    2.849297    1.025540
H      3.856427    2.745346    0.456286
H     -4.455222   -2.002894    0.374665
H     -5.147723   -0.592624    1.226721
H     -5.594736   -1.445387   -1.691830
H     -6.716896   -1.445054   -0.302473
H      9.575360   -1.409606    0.230300
H     -1.153862   -1.940418    1.380749
H     -0.845377   -0.150191    1.514588
H      0.240270   -0.636189   -2.171956
H     -0.601548    0.774516   -1.502715
H      1.861841   -1.860523   -0.810590
H      1.131302   -1.767776    0.834332
H      1.695567    1.789289   -0.030345
H      1.077012    1.554916   -1.695090
H     -2.066021   -1.191826   -1.861460
H     -1.143183   -2.197166   -0.773829
H      3.491380   -1.579485    0.920848
H      2.590308   -0.226189    1.686289
H      2.734238   -0.404449   -1.872159
H      3.442387    1.249454   -1.986069
H     -2.942097    1.193809   -1.761720
H     -3.824640   -0.349902   -2.304476
H     -3.535559    0.758208    0.532987
H     -8.117690    4.215346   -1.858387
H     -8.258676    0.676391   -0.836845
