77

C      8.582376    2.632886    0.953686
C      6.264196   -3.114551   -2.814331
C     -2.181156    3.134455   -1.598241
C     -2.280530   -1.674363    3.781173
C      6.533290    0.810435    0.286971
C      5.741483   -1.051613   -0.917293
C     -0.855777    1.514973    0.241112
C     -0.916600   -0.048286    1.988744
C     -7.974351    0.770766   -1.574175
C      2.802563    2.127863    0.235870
C      2.476785   -1.377137    0.390206
C      5.501531   -0.054734   -0.005752
C     -0.160400    0.719457    1.145535
C      3.172143    0.758307   -0.261602
C      1.923170   -0.028642    0.030205
C      7.780980    0.694895   -0.308898
C      6.995535   -1.168447   -1.516804
C     -2.228206    1.530539    0.195180
C     -2.316301   -0.050782    1.962517
C     -6.591906    0.132428   -1.602139
C      8.028556   -0.295280   -1.217987
C     -6.689856   -1.348590   -1.436477
C     -6.885851   -1.782132   -0.020712
C     -6.274954   -0.768923    0.955940
C      4.184045    0.068966    0.624452
C      1.331021    0.711961    1.185446
C     -2.984570    0.736560    1.067661
C     -5.161552   -0.086355    0.213684
O     -8.796574    0.062191   -2.466979
O      9.261231   -0.461094   -1.848914
O     -5.559617   -1.979962   -1.981418
O     -8.253741   -1.928397    0.281779
O     -5.904594   -1.374625    2.128149
O      8.813481    1.586870    0.005450
O      7.237591   -2.167396   -2.430889
O     -2.922225    2.313538   -0.695210
O     -2.975216   -0.862460    2.857730
O      3.637030   -1.104834    1.069948
O      1.776200    2.004007    1.125295
O     -5.718041    0.762150   -0.755813
O     -4.360299    0.749606    1.024948
H      7.761074    3.254958    0.492863
H      9.519339    3.204886    1.048823
H      8.281223    2.217199    1.916517
H      6.761673   -3.945829   -3.355711
H      5.704204   -3.529242   -1.959465
H      5.521163   -2.611022   -3.494264
H     -2.808409    3.849417   -2.135169
H     -1.643715    2.440672   -2.280161
H     -1.442074    3.702288   -0.997656
H     -1.659399   -0.990408    4.427274
H     -1.620413   -2.410171    3.244181
H     -2.961224   -2.202469    4.467668
H      6.386789    1.618909    1.006805
H      4.992138   -1.772380   -1.205478
H     -0.255131    2.123732   -0.427368
H     -0.413905   -0.683715    2.710207
H     -8.446113    0.726842   -0.592296
H     -7.860338    1.808781   -1.943271
H      2.417336    2.695521   -0.660994
H      3.683468    2.669465    0.596182
H      2.684752   -1.929706   -0.548569
H      1.790564   -1.956964    1.042314
H      3.469077    0.729914   -1.321401
H      1.255697   -0.062694   -0.855119
H     -6.213386    0.315104   -2.650925
H     -7.563917   -1.677978   -2.073467
H     -6.422284   -2.777723    0.128550
H     -7.024325    0.014679    1.211752
H      4.305131    0.735745    1.523947
H      1.619986    0.188056    2.130076
H     -4.467300   -0.822022   -0.272375
H     -9.711070    0.394767   -2.470177
H     10.005383    0.193147   -1.613335
H     -5.377153   -1.620152   -2.885199
H     -8.357236   -2.615388    0.997276
H     -5.962497   -2.370466    1.987023
