77

C      6.117123   -3.465570    1.290835
C      8.726822    2.816334   -1.064045
C     -2.471142    1.166436    3.585034
C     -2.198578    0.029675   -3.541018
C      5.743803   -0.886987    0.324803
C      6.564919    1.190088   -0.454685
C     -1.039870    1.038946    1.213182
C     -0.982488    0.654559   -1.156243
C     -6.846174    0.901602    1.433862
C      2.428985   -0.304763    1.007520
C      2.662372    1.673745   -1.849448
C      5.478874    0.372071   -0.147881
C     -0.323999    0.971089    0.004618
C      3.037124   -0.073980   -0.328658
C      1.892904    0.648226   -1.062775
C      7.045137   -1.342096    0.496342
C      7.847637    0.722618   -0.278674
C     -2.388489    0.786727    1.216929
C     -2.361285    0.392564   -1.176502
C     -6.748226   -0.580230    1.575849
C      8.123530   -0.550386    0.199558
C     -7.669009   -1.238691    0.587705
C     -7.154225   -1.155254   -0.824305
C     -5.719951   -1.609925   -0.847545
C      4.120504    0.932625   -0.352746
C      1.117753    1.260435    0.056978
C     -3.010248    0.472219    0.032176
C     -4.888570   -1.083479    0.268700
O     -6.156978    1.608008    2.394712
O      9.436969   -0.986525    0.363952
O     -7.725405   -2.606044    0.941274
O     -7.366288    0.063636   -1.425641
O     -5.752416   -3.017735   -0.714185
O      7.226231   -2.636286    0.982600
O      8.937810    1.520665   -0.577893
O     -3.151463    0.841425    2.400451
O     -2.986738    0.076605   -2.369100
O      3.997976    1.537452   -1.596963
O      1.651046    0.793235    1.239278
O     -5.486052   -1.097099    1.509630
O     -4.374116    0.219756    0.060083
H      5.570080   -3.629518    0.339673
H      6.454526   -4.421930    1.687675
H      5.463352   -2.936810    2.036042
H      8.134830    3.445447   -0.382486
H      9.735013    3.250309   -1.291443
H      8.182864    2.813833   -2.049923
H     -2.205192    2.230267    3.681755
H     -1.577433    0.494288    3.711659
H     -3.142668    0.899664    4.452394
H     -1.710928    1.030563   -3.728626
H     -1.330068   -0.674681   -3.378910
H     -2.742652   -0.340638   -4.416334
H      4.892821   -1.541889    0.566340
H      6.431175    2.196930   -0.832149
H     -0.534143    1.288104    2.137108
H     -0.426032    0.616810   -2.080903
H     -6.534660    1.271840    0.436886
H     -7.924755    1.173988    1.529684
H      3.250885   -0.324445    1.770564
H      1.846240   -1.248838    1.018786
H      2.405811    1.597722   -2.945456
H      2.355836    2.724851   -1.578378
H      3.263396   -1.005103   -0.886954
H      1.345726   -0.061960   -1.688285
H     -7.151981   -0.831455    2.593229
H     -8.675390   -0.803857    0.714409
H     -7.730340   -1.914625   -1.426434
H     -5.218385   -1.413764   -1.799009
H      3.886476    1.715862    0.404338
H      1.300587    2.355465    0.027516
H     -3.995200   -1.772555    0.360449
H     -6.749003    2.037933    3.031451
H      9.573878   -1.922925    0.715865
H     -7.981608   -3.146235    0.170535
H     -8.245377    0.064005   -1.914527
H     -5.573489   -3.272345    0.231577
