66

C     -2.852893   -4.596305   -1.300577
C     -2.357378   -3.458094   -0.451747
C      6.584508   -1.941828   -0.238748
C      7.912777   -1.571650   -0.299780
C      5.622932   -0.993869   -0.055393
C      8.281357   -0.255737   -0.177116
C     -4.625254   -0.486765    0.839081
C     -5.316834    0.707963    1.431242
C      5.407586    2.617539    0.398907
C      6.741206    2.928136    0.330741
C     -2.948864   -2.112603   -0.872360
C     -0.506910    0.293207    0.701561
C      1.397745    1.182990   -0.574361
C      1.690615    0.230562    1.573219
C     -1.100674   -0.736546   -0.234968
C      2.796179    0.560712   -0.808029
C      2.964341    1.059482    1.612953
C     -3.769472    0.734469   -1.094163
C     -3.365579    0.022034    0.142577
C      5.933532    0.341013    0.072649
C      7.296456    0.684310    0.006541
C     -5.848781    1.454671    0.175919
C      4.977983    1.303871    0.268783
C     -5.041060    1.387774   -0.923335
C     -7.366620    2.712825   -0.967225
N     -8.431447    3.401107   -1.231164
N      7.666652    1.976087    0.137750
N     -6.978416    2.103500    0.141830
N      0.841993    0.548670    0.517334
N     -2.463807   -1.052647   -0.036817
N      3.606944    0.970918    0.308439
S     -6.032882    2.375043   -2.139295
H     -3.587384   -5.225296   -0.721702
H     -3.264226   -4.216528   -2.235871
H     -2.010388   -5.307780   -1.564154
H     -2.704788   -3.617098    0.608925
H     -1.254709   -3.458876   -0.529225
H      6.268155   -2.984772   -0.331383
H      8.648096   -2.359380   -0.446571
H      4.570591   -1.243801    0.009246
H      9.317905    0.012650   -0.228264
H     -4.297620   -1.140097    1.670706
H     -5.277557   -1.056333    0.143257
H     -6.126176    0.358465    2.054945
H     -4.608787    1.328424    1.968216
H      4.633018    3.368067    0.557575
H      7.057236    3.948975    0.431147
H     -2.537156   -1.961165   -1.918208
H     -4.027041   -2.177190   -0.993404
H     -1.113171    1.251839    0.704338
H     -0.654544   -0.112583    1.746178
H      0.889442    1.037766   -1.566651
H      1.504495    2.295661   -0.503236
H      2.062809   -0.838511    1.538461
H      1.223033    0.320534    2.586204
H     -0.496086   -1.666268   -0.248846
H     -1.015848   -0.237422   -1.266535
H      3.196721    0.904744   -1.778444
H      2.578905   -0.521262   -0.861396
H      2.698456    2.094934    1.890263
H      3.608764    0.656612    2.399136
H     -3.019949    1.461679   -1.471169
H     -3.862922   -0.030113   -1.915400
H     -2.931014    0.743173    0.886677
H     -8.517835    3.790083   -2.190357
H     -7.666358    2.190036    0.997158
