41

C     -4.882588    2.339421   -0.555503
C      4.986754    2.768994    0.917160
C     -4.959281   -1.372388    1.591627
C     -3.804010   -2.111534    1.565998
C     -4.964184   -0.177007    0.911614
C     -2.660359   -1.688121    0.881680
C      2.424637   -1.433728   -0.055127
C      3.759926   -1.844736    0.127767
C      3.044562    0.806603    0.331774
C     -0.048270   -0.925607   -2.094944
C      2.067229   -0.120827    0.044683
C      4.696917   -0.873590    0.412798
C     -3.848402    0.246096    0.238264
C     -2.651337   -0.500602    0.200764
C      4.361776    0.460037    0.519963
C     -0.350879   -0.619547   -0.622080
C      0.716417    0.320986   -0.162889
O     -0.058731    0.302750   -2.799339
O      6.038361   -1.217492    0.605122
O      0.401420    1.534944    0.043760
O     -3.815396    1.446173   -0.459108
O      5.339787    1.402211    0.809016
O     -1.577571   -0.005546   -0.497367
H     -5.531661    2.099712   -1.418532
H     -4.483070    3.370026   -0.750831
H     -5.447873    2.323578    0.390214
H      5.950869    3.345362    0.907177
H      4.379242    3.089313    0.037163
H      4.484845    3.007445    1.877923
H     -5.805328   -1.754352    2.137077
H     -3.743741   -3.061448    2.084545
H     -5.877087    0.404608    0.933269
H     -1.771274   -2.314568    0.894816
H      1.703792   -2.187872   -0.256014
H      4.021823   -2.877620    0.045172
H      2.789990    1.868727    0.419286
H      0.926863   -1.385315   -2.252752
H     -0.844153   -1.535286   -2.511223
H     -0.311851   -1.571353   -0.094379
H     -0.992705    0.616883   -2.819815
H      6.334540   -2.175330    0.537876
