64

C      8.718124   -1.859450   -1.732157
C     -4.522505   -2.910674   -1.168625
C      2.315380    0.872954   -0.705462
C      3.121617    1.484348    1.420113
C      1.045579    1.228409   -0.343875
C      1.873248    1.846739    1.812680
C     -4.223099   -1.641474   -0.756704
C     -6.649320    1.959934   -2.645625
C     -5.794450    2.215849   -1.586621
C      6.554958   -0.163833    0.967775
C      5.906859   -1.352808   -1.109799
C      5.847470    1.086187    0.423860
C      4.851012   -0.321181   -1.352900
C     -5.974226   -3.091333    0.720567
C     -1.649317    2.062246    0.772487
C     -2.472107   -0.102641    1.706494
C     -5.505629    1.316398    0.710037
C     -7.162577    0.651758   -1.009632
C      8.324755   -1.124020   -0.515039
C     -5.416093   -3.647307   -0.412802
C      3.384260    0.994499    0.174177
C      0.793738    1.718419    0.910657
C     -2.164691    0.698424    0.448384
C     -4.760929   -1.048643    0.372396
C     -5.644273   -1.797502    1.106476
C     -4.371224    0.319193    0.712808
Cl    -5.837647   -5.280423   -0.892883
Cl    -6.364284   -1.131182    2.548451
N     -7.495746    0.990358   -2.284902
N     -6.136144    1.397425   -0.600821
N      6.954925   -0.894253   -0.240569
N      4.669186    0.600576   -0.242294
O      9.204111   -0.702615    0.275982
O     -0.414357    2.096902    1.381815
O     -3.787819    0.334526    1.970227
O     -3.406857    0.800635   -0.172839
H      9.785485   -2.094384   -1.686039
H      8.525738   -1.207505   -2.605785
H      8.150984   -2.809673   -1.770004
H     -4.115991   -3.387578   -2.040777
H      2.457526    0.497014   -1.709016
H      3.931444    1.596036    2.157894
H      0.268671    1.131323   -1.075096
H      1.711430    2.232354    2.815586
H     -3.527171   -1.072691   -1.348598
H     -6.618301    2.471575   -3.595928
H     -4.997169    2.957642   -1.588909
H      7.405893    0.091219    1.602449
H      5.766713   -0.759275    1.472510
H      5.455455   -2.281616   -0.689030
H      6.314501   -1.651135   -2.110372
H      5.658443    1.797089    1.223741
H      6.577450    1.501957   -0.329896
H      5.058639    0.217084   -2.300425
H      3.880179   -0.872567   -1.464224
H     -6.670058   -3.685939    1.295504
H     -2.405537    2.589907    1.434301
H     -1.653068    2.695168   -0.152016
H     -1.862049    0.191189    2.562242
H     -2.447468   -1.190312    1.493152
H     -6.243203    1.158652    1.495130
H     -5.017294    2.306385    0.949655
H     -7.707381   -0.121479   -0.483961
H     -1.495789    0.093118   -0.164450
