52

C     -3.536930   -1.579806   -0.196753
C     -3.710907    0.707712    0.770119
C      4.110902   -0.090495   -0.849501
C     -1.143748   -4.143595   -0.032047
C      0.724421    4.339327   -1.178731
C      1.374174   -1.613168    1.371956
C      1.587956    1.463605    1.115824
C      2.356330   -1.360992    0.340203
C      2.950006    0.810771    1.261465
C      0.446724   -2.732503    1.070379
C      1.586509    2.800185    0.490921
C     -0.323663   -1.964656   -1.105060
C     -0.156743    1.902406   -1.049006
C     -0.825161   -0.753946   -1.228079
C     -1.187082    1.441557   -0.106886
C     -3.031110   -0.186957   -0.244168
C      3.095863   -0.296774    0.254867
C     -0.294521   -2.868094   -0.015118
C      0.739569    2.995844   -0.538583
C     -1.512663   -0.062276   -0.146505
H     -3.320405   -1.974056    0.826078
H     -3.114475   -2.256932   -0.934863
H     -4.660605   -1.604822   -0.293241
H     -4.103019    1.644018    0.322891
H     -4.602366    0.170954    1.185508
H     -3.022523    0.973154    1.618892
H      4.063963    0.940867   -1.234108
H      5.096513   -0.305501   -0.375319
H      3.948404   -0.849288   -1.639807
H     -1.261503   -4.494297   -1.070019
H     -2.118256   -3.985880    0.450348
H     -0.645309   -4.933370    0.557624
H     -0.335539    4.655333   -1.406044
H      1.197411    5.087288   -0.542044
H      1.212835    4.282025   -2.188742
H      2.004850   -2.045124    2.241674
H      0.869205   -0.799699    1.875295
H      1.104576    1.541622    2.088780
H      1.092139    0.804468    0.374810
H      2.493344   -2.124881   -0.435974
H      3.013498    0.318926    2.258064
H      3.734243    1.563669    1.170741
H      0.376616   -3.518409    1.851538
H      2.232387    3.618737    0.824715
H      0.118339   -2.327863   -2.069786
H     -0.700018    2.308995   -1.961655
H      0.525843    1.154985   -1.480503
H     -0.754698   -0.191204   -2.184923
H     -0.955798    1.795343    0.917197
H     -2.174797    1.957892   -0.331420
H     -3.317623    0.236407   -1.252454
H     -1.247158   -0.451502    0.851453
