58

C     -4.040973    4.118208   -1.520785
C     -7.588652    1.401059   -0.079871
C     -6.487125   -1.845455    0.866480
C      9.158280    2.430496   -0.041486
C     -1.423972   -0.122850   -0.036264
C     -3.150781    1.615990   -0.742159
C      5.036599    1.329687    0.921162
C      1.512888   -0.050896    1.574904
C      2.783938   -2.435668   -0.895246
C      1.717504   -3.455348    1.165156
C     -2.680870    0.389465   -0.355503
C      3.013889   -3.031339    0.469449
C      3.862188    0.597694    1.005376
C     -1.552309   -1.441995    0.285867
C      5.909116    0.493107    0.230600
C      2.574544    0.940791    1.635616
C     -4.491228    1.820684   -0.994748
C      1.688444   -1.199126    0.979644
C     -3.566976   -0.636316   -0.222712
C     -5.369681    0.758850   -0.851530
C     -4.929924   -0.482285   -0.465580
C      4.025486   -0.617944    0.393587
C     -0.572288   -2.436958    0.642669
C      7.284210    0.861108   -0.090224
C      2.948375   -1.583585    0.320830
N     -2.868700   -1.709536    0.158488
N      5.272234   -0.653600   -0.065112
N      0.794552   -2.311001    0.874653
O      2.467237    2.046587    2.178528
O     -1.009947   -3.656949    0.772456
O      8.023786    0.061605   -0.716703
O     -4.951041    3.054593   -1.381810
O     -6.721037    0.984486   -1.111163
O     -5.814985   -1.532269   -0.326399
O      7.822599    2.083904    0.275087
H     -3.655796    4.353092   -0.502209
H     -4.523560    5.006642   -1.965031
H     -3.162497    3.853994   -2.138584
H     -8.607177    1.060249   -0.347191
H     -7.258474    0.986453    0.911078
H     -7.533090    2.501134    0.016953
H     -7.526216   -1.424230    0.884430
H     -5.934814   -1.445783    1.727427
H     -6.619027   -2.947179    0.990869
H      9.132681    3.063468   -0.961934
H      9.669742    2.908867    0.800320
H      9.697669    1.492792   -0.329853
H     -0.547216    0.471977   -0.075640
H     -2.410358    2.411536   -0.837200
H      5.255313    2.313827    1.291176
H      0.530303    0.173524    2.037588
H      1.771203   -2.484412   -1.335331
H      3.591307   -2.400382   -1.628955
H      1.321588   -4.364338    0.685272
H      1.840418   -3.610238    2.229962
H      3.897350   -3.618371    0.706018
H     -3.309504   -2.637413    0.333331
H      5.704773   -1.450402   -0.581160
