24

C      1.143763   -0.882380   -0.958087
C      0.114786    0.206222   -1.120725
C      2.231876   -0.171611   -0.169588
C      0.254583    1.086863    0.122165
C      1.406969    0.530750    0.909706
C     -1.207096   -1.347805    0.160045
C     -1.046859   -0.605793    1.251634
C     -1.260106   -0.398302   -0.988044
C     -1.012064    0.834398    0.877815
C     -2.003109    0.763131   -0.302254
Cl     3.382921   -1.298545    0.543473
Cl     2.364220    1.806337    1.702613
Cl    -1.337290   -3.075255    0.014762
Cl    -0.899654   -1.199126    2.886611
Cl    -1.989080   -0.975095   -2.418342
Cl    -1.432993    1.947296    2.097117
Cl    -3.567671    0.205786    0.253687
Cl    -2.026811    2.209572   -1.252709
H      1.579286   -1.206400   -1.930976
H      0.800018   -1.738669   -0.366945
H      0.258551    0.778362   -2.049137
H      2.733478    0.599401   -0.779480
H      0.409285    2.148364   -0.149168
H      1.102996   -0.217501    1.665828
