47

C     -4.624419   -2.412158    0.985819
C     -3.410381   -2.922688    0.610621
C     -4.932139   -1.102945    0.633017
C      3.870784   -0.967091    0.555672
C      3.981759   -0.819099   -1.786298
C      2.224898    0.526272   -0.634596
C      4.957006   -1.835183    0.550657
C      5.056222   -1.675065   -1.809251
C      0.906609   -0.161986   -0.709393
C     -3.054103    3.660689    1.503327
C     -2.334390    2.483747    1.434512
C     -0.243792    1.684385    0.440476
C     -1.225394    3.963729    0.305647
C      3.351933   -0.434479   -0.596595
C      5.562206   -2.198629   -0.630224
C     -0.253708    0.870890   -0.781208
C     -2.503883   -2.144321   -0.107131
C     -4.018889   -0.368693   -0.072571
C     -2.758098   -0.845631   -0.477450
Cl     6.947682   -3.287028   -0.679238
Cl    -1.002227   -2.916556   -0.556496
Cl    -4.469242    1.224709   -0.638262
N     -2.350398    4.552383    0.801277
N     -1.205728    2.684298    0.692277
S     -1.686143    0.136370   -1.439331
N     -0.422881    0.048043    0.044307
O      0.878284   -0.053328    0.428349
O     -1.170139   -1.087270   -0.039707
O     -0.961259    1.121726   -0.232625
H     -5.351672   -2.989743    1.544153
H     -3.195165   -3.960685    0.903076
H     -5.899802   -0.706618    0.937407
H      3.406818   -0.698785    1.517712
H      3.562178   -0.392554   -2.700159
H      2.417330    1.181787   -1.518633
H      2.293282    1.082208    0.320997
H      5.347598   -2.246152    1.465537
H      5.515665   -1.935446   -2.761681
H      0.858519   -0.878196   -1.526205
H      0.754403   -0.681562    0.255761
H     -3.993995    3.757035    2.041404
H     -2.615329    1.533073    1.901524
H      0.757111    2.200671    0.602228
H     -0.302931    0.955737    1.329772
H     -0.502739    4.510614   -0.300051
H      0.162561    1.572693   -1.608099
H      1.675995   -0.029171   -0.200325
