71

C     -4.295045   -0.945862   -2.823953
C     -2.132385    3.040338    0.878502
C      5.664229   -1.869939   -2.039387
C      1.457457   -2.201042    1.801846
C     -4.463317    1.644443   -0.782043
C     -1.885569    0.801027    2.278729
C      5.702883    2.317676   -0.957654
C     -4.835413   -1.582610    0.697304
C     -5.348535   -1.301659   -0.671824
C     -3.974053   -0.471796    1.284755
C     -1.643561    1.968374   -1.332457
C      4.271222   -1.279374    1.450033
C      3.084285   -0.389915    1.705836
C     -2.461492    0.885347   -1.927909
C      0.738310    0.130881    1.223681
C     -0.538270   -0.355164    0.662506
C     -4.400935   -0.616525   -1.566131
C     -1.421606    1.881003    0.154356
C      5.589450   -1.491687   -0.583543
C      4.201409   -1.697691   -0.014633
C     -2.945095   -0.122690    0.230784
C      6.022389   -0.068994   -0.424526
C      1.834165   -0.947905    1.080823
C     -3.560840    0.467132   -0.997240
C     -1.723443    0.571620    0.760555
O      7.005630    0.253412    0.288525
O      5.337241    0.949823   -1.071844
O      3.262036   -0.896007   -0.647382
O      2.069929   -1.217673   -0.250389
H     -4.923275   -1.754119   -3.241184
H     -3.612605   -0.471650   -3.520774
H     -2.946823    2.677143    1.531998
H     -1.446085    3.597888    1.547173
H     -2.507641    3.780707    0.150695
H      6.578341   -1.397701   -2.480782
H      5.751144   -2.992642   -2.124538
H      4.813139   -1.486694   -2.630257
H      2.375364   -2.811336    1.923722
H      1.073628   -2.014120    2.823781
H      0.753271   -2.846379    1.206240
H     -4.060837    2.586248   -1.220574
H     -5.441495    1.513970   -1.341816
H     -4.761607    1.848971    0.240173
H     -1.489784   -0.057875    2.854348
H     -1.327484    1.735460    2.578588
H     -2.916713    0.949752    2.580438
H      4.844584    2.925901   -0.576797
H      6.002759    2.754645   -1.925554
H      6.556815    2.395631   -0.251123
H     -5.693970   -1.728858    1.376161
H     -4.240261   -2.534719    0.749522
H     -5.652256   -2.295130   -1.108198
H     -6.266923   -0.684074   -0.567781
H     -3.409678   -0.960801    2.119235
H     -4.599536    0.349110    1.605463
H     -2.087995    2.979949   -1.534613
H     -0.673475    1.994870   -1.914089
H      4.302963   -2.160688    2.117592
H      5.186980   -0.691507    1.666199
H      3.314940    0.603277    1.226113
H      2.903674   -0.231845    2.792439
H     -1.850324    0.058981   -2.303462
H     -2.971863    1.330695   -2.833331
H      1.136611    0.951185    0.556213
H      0.693674    0.527801    2.231285
H     -0.415296   -0.637599   -0.426656
H     -0.891683   -1.316621    1.126109
H     -0.349831    2.124764    0.297880
H      6.279779   -2.140408   -0.016119
H      3.960119   -2.771462   -0.125596
H     -2.601420   -1.155265   -0.106644
