41

C      0.645892    0.977490   -1.374055
C     -1.486860   -1.127154   -2.066827
C      5.376646    0.025212    0.268511
C     -4.694821    1.733979    0.754016
C      4.507280    1.049453    0.580801
C      4.894288   -1.239958    0.005252
C     -4.940830    0.465740    0.303302
C     -3.401799    2.086486    1.075712
C      3.134358    0.868673    0.645887
C      3.521191   -1.424958    0.069342
C     -3.894528   -0.454815    0.172487
C     -2.377886    1.169421    0.942430
C      1.195630   -0.664622    0.438327
C     -1.495242   -1.112527    0.339657
C      0.512386   -0.436796   -0.878812
C      2.656913   -0.397177    0.382134
C     -2.602113   -0.112185    0.490922
N     -0.778320   -0.980874   -0.857141
Cl     0.686207    0.000000    0.000000
H      0.468730    1.731660   -0.584119
H      1.660826    1.120426   -1.800380
H     -0.078073    1.120098   -2.180551
H     -0.802974   -1.034551   -2.935977
H     -1.953275   -2.139768   -2.099998
H     -2.317334   -0.394594   -2.107510
H      6.449985    0.182731    0.221417
H     -5.525140    2.429139    0.846085
H      4.872987    2.060043    0.792413
H      5.586915   -2.032397   -0.237388
H     -5.949982    0.182628    0.050365
H     -3.200150    3.079266    1.429818
H      2.489794    1.702727    0.894643
H      3.184197   -2.442553   -0.146691
H     -4.171998   -1.431060   -0.187700
H     -1.384488    1.500069    1.208856
H      1.012847   -1.719664    0.719094
H      0.729458   -0.045601    1.260404
H     -0.955671   -1.116348    1.280817
H     -2.005236   -2.129755    0.303133
H      1.116396   -1.047884   -1.624655
H     -0.686207    0.000000    0.000000
