41

C     -1.063924   -0.346239   -1.271318
C      1.005970    1.393122   -0.101519
C     -5.646503   -0.000414    0.558583
C      5.788042   -0.257169    0.031172
C     -4.996938    0.798311   -0.376087
C     -4.968202   -0.578451    1.605394
C      4.954528   -0.085445    1.128129
C      5.203629   -0.648937   -1.158540
C     -3.647360    0.974044   -0.192054
C     -3.618427   -0.373728    1.747577
C      3.589615   -0.294567    1.049574
C      3.844420   -0.853364   -1.219661
C     -1.496609    0.685379    0.911484
C      1.565499   -0.926951   -0.330408
C     -0.652671   -0.326005    0.169914
C     -2.947397    0.404335    0.850522
C      3.005447   -0.686630   -0.140046
N      0.736198    0.048279    0.345707
Cl     0.686862    0.000000    0.000000
H     -0.994069    0.622956   -1.785710
H     -2.161598   -0.601492   -1.322285
H     -0.599273   -1.198514   -1.840873
H      0.732661    2.064475    0.763886
H      2.090447    1.505372   -0.247447
H      0.503771    1.709324   -1.007558
H     -6.704838   -0.167097    0.451885
H      6.854971   -0.097535    0.073090
H     -5.549764    1.247049   -1.197193
H     -5.538475   -1.203402    2.317175
H      5.385334    0.221219    2.080421
H      5.848480   -0.784611   -2.017151
H     -3.143556    1.609637   -0.938401
H     -3.088185   -0.833647    2.572467
H      2.972978   -0.149815    1.926606
H      3.422436   -1.166553   -2.186976
H     -1.321349    1.673931    0.453404
H     -1.222456    0.733419    1.987982
H      1.340272   -1.911383    0.136254
H      1.343160   -0.889280   -1.410042
H     -0.826264   -1.309622    0.611107
H     -0.686862    0.000000    0.000000
