77

C     -4.356350   -2.386725   -0.843500
C     -4.694395   -0.123204   -0.342205
C     -4.340113   -1.817298    1.480475
C     -1.944556   -2.692896    0.211639
C     -2.682056    1.350411    2.653074
C      5.041054   -2.908553    0.305085
C      3.793513   -3.700400    0.123933
C      2.672817    3.740785   -1.451399
C      2.025279    4.878404   -0.926779
C     -0.260749    1.174326   -1.546493
C     -1.415260    1.670919   -0.736330
C      2.110280    0.573669    1.357383
C      2.966252   -0.431800    0.695559
C      2.869664    1.209995   -1.525263
C     -0.090489   -0.804000   -0.087576
C      3.584847   -1.541208   -1.342037
C      4.257720   -2.808389   -0.971327
C      2.346649    2.493017   -0.990742
C      1.043859    4.729215    0.067373
C     -1.443871   -0.423719    0.579683
C      1.899032    0.047274   -1.327236
C      1.392995    2.471001   -0.030644
C      0.697433    3.465371    0.549195
C     -0.209336    1.490613    1.372664
C     -3.871482   -1.282578    0.179607
C     -2.423915   -1.235481   -0.078531
C      0.627676    0.366484   -0.632336
C      1.020172    1.189039    0.589044
C     -1.471700    1.059251    0.666323
N      2.593333   -0.987296   -0.530291
O      0.398594    5.835339    0.591041
O     -2.293460   -1.130537   -1.488965
O     -2.473581    1.663770    1.354690
O     -0.193067    2.933660    1.474296
Cl     0.687957    0.000000    0.000000
H     -4.021047   -3.366073   -0.509151
H     -4.084042   -2.083366   -1.856148
H     -5.475405   -2.381162   -0.788348
H     -5.726747   -0.513513   -0.532455
H     -4.681780    0.785845    0.226989
H     -4.292964    0.107795   -1.371347
H     -3.572570   -1.892331    2.275914
H     -5.193627   -1.149016    1.815207
H     -4.809675   -2.832733    1.451389
H     -2.579376   -3.089812    1.021888
H     -1.994351   -3.307875   -0.709068
H     -0.912895   -2.714429    0.586445
H     -1.826962    1.544615    3.332890
H     -3.464099    2.088422    3.027234
H     -3.153917    0.372527    2.828998
H      5.151517   -2.087030    1.006860
H      5.965476   -3.561544    0.309322
H      2.835867   -3.439476    0.580770
H      3.870175   -4.816884   -0.035260
H      3.411475    3.897449   -2.205603
H      2.259267    5.874556   -1.266328
H      0.255622    2.072696   -1.958063
H     -0.504636    0.573256   -2.428011
H     -2.365407    1.512511   -1.286194
H     -1.371856    2.779198   -0.575216
H      1.753775    0.210028    2.380624
H      2.786080    1.440696    1.683871
H      4.032220   -0.031229    0.693378
H      3.064077   -1.289930    1.451074
H      3.065282    1.305703   -2.610759
H      3.839116    1.056015   -1.019705
H     -0.231999   -1.521695   -0.918303
H      0.557243   -1.359345    0.645008
H      3.198147   -1.720042   -2.412220
H      4.404587   -0.768446   -1.562767
H      4.757509   -3.397048   -1.812382
H     -1.329875   -0.780457    1.650482
H      1.676907   -0.417650   -2.304102
H     -0.113673    1.053643    2.386195
H     -0.304857    5.752528    1.300648
H     -2.049372   -1.974857   -1.893167
H     -0.687957    0.000000    0.000000
