30

C     -3.734099   -0.917207   -0.264840
C     -2.715814   -0.602725    0.809885
C     -2.168097    0.795213    0.660709
C     -1.485378    1.026240   -0.644870
C     -0.310115    0.115309   -0.881077
C      0.754183    0.290867    0.192450
C      1.864332   -0.650875   -0.135321
C      3.022663   -0.620792    0.829440
C      3.686222    0.680358    0.938728
O      3.940842   -1.559470    0.361308
O      4.894687    0.790158    0.617756
O      3.049201    1.815105    1.382565
H     -4.182592    0.019313   -0.682624
H     -4.528888   -1.588093    0.083336
H     -3.246801   -1.444816   -1.132013
H     -1.935136   -1.378488    0.756438
H     -3.221247   -0.649063    1.799348
H     -3.054849    1.480471    0.690210
H     -1.540065    1.093103    1.521977
H     -2.225440    0.983200   -1.467248
H     -1.101453    2.072369   -0.638213
H     -0.568596   -0.944327   -0.904838
H      0.111363    0.373605   -1.874729
H      1.056003    1.351075    0.270595
H      0.309034    0.026555    1.179067
H      1.461933   -1.672950   -0.135326
H      2.271877   -0.382549   -1.137699
H      2.706536   -0.989226    1.833588
H      3.522942   -2.222084   -0.244164
H      3.366752    2.709723    1.018377
