29

C      1.220856   -1.468717   -0.417021
C     -2.077691    1.508669   -0.151872
C     -1.570220   -0.401706    1.080307
C     -1.462990   -0.497204   -1.233150
C      0.147972    0.768122    0.052711
C      1.195539    0.012269   -0.701993
C      3.208889    0.474277    0.674286
N      2.823583   -0.159138    1.681399
N     -1.182936    0.338160   -0.110864
O      4.415637    1.173906    0.734853
O      2.497244    0.508197   -0.479031
Cl     0.689674    0.000000    0.000000
H      0.944983   -2.022180   -1.362231
H      0.534303   -1.789138    0.386153
H      2.254720   -1.847006   -0.187545
H     -1.948852    2.018686   -1.104433
H     -3.128587    1.205740   -0.010657
H     -1.739540    2.152739    0.693141
H     -2.473746    0.009453    1.566232
H     -0.766084   -0.399104    1.845689
H     -1.796976   -1.473400    0.843851
H     -2.547350   -0.326187   -1.503518
H     -0.893258   -0.307134   -2.132383
H     -1.408027   -1.584437   -1.004405
H      0.451167    0.858940    1.106450
H      0.210581    1.828108   -0.344098
H      1.069409    0.146770   -1.824395
H      2.021374   -0.728685    1.902524
H     -0.689674    0.000000    0.000000
