31

C     -1.266087    1.930686   -1.475896
C      4.028748    0.682995   -0.171708
C     -2.239674   -1.190604    0.502420
C     -2.977268    0.020778   -0.016458
C      0.057194   -2.041418    0.520651
C      1.112357    0.440438    0.032309
C     -1.135484    1.508264   -0.028775
C     -0.785680   -0.926128    0.374466
C     -0.270496    0.321879    0.129727
C      1.427540   -1.876495    0.415881
C      1.964970   -0.631128    0.170407
N     -2.415588    1.243867    0.548034
O      2.310805   -2.927942    0.548765
O      3.302041   -0.462735    0.066923
Cl     0.685679    0.000000    0.000000
H     -2.214594    2.509347   -1.550357
H     -0.423580    2.607354   -1.709623
H     -1.255905    1.054438   -2.151918
H      3.491512    1.610450    0.153491
H      5.033227    0.712317    0.288409
H      4.172952    0.797603   -1.267600
H     -2.536210   -1.321914    1.563978
H     -2.530169   -2.067755   -0.109533
H     -2.883067    0.037242   -1.117681
H     -4.045318   -0.039251    0.222097
H     -0.340648   -3.021103    0.712381
H      1.484819    1.433858   -0.160438
H     -0.707296    2.395410    0.517013
H     -2.281465    1.046149    1.569333
H      1.922366   -3.846603    0.729395
H     -0.685679    0.000000    0.000000
