55

C      7.282816    1.128678    1.327547
C      6.718314   -0.775854   -0.701295
C      5.914673    0.933365    0.789110
C     -5.836138   -0.679970   -0.366587
C     -4.841351    0.114031   -1.179458
C     -5.594984   -2.151436   -0.430039
C      1.175789    1.645086   -1.168800
C      0.263625    2.305150   -0.152242
C     -2.429918   -0.238410    1.483259
C      1.111666   -0.142142    0.470274
C     -2.015876    1.746940    0.117511
C     -1.796880   -1.921724   -0.148636
C      5.630781    0.052940   -0.154575
C     -3.021658    0.690409    0.437136
C     -1.249499   -0.944467    0.846145
C      1.906162    0.497405   -0.654386
C     -3.423020   -0.152121   -0.760950
C     -0.344170    0.027716    0.131782
C     -4.181796   -2.493605   -0.691191
C      4.268747   -0.105489   -0.655165
N     -0.674613    1.401177    0.454643
N     -3.149876   -1.551017   -0.533869
O     -3.889571   -3.664628   -1.065933
O      3.953570   -0.922910   -1.544122
O      3.193852    0.623252   -0.204885
H      7.923769    1.740333    0.659725
H      7.266313    1.554559    2.345277
H      7.823820    0.142879    1.433332
H      6.749669   -1.782922   -0.236371
H      6.478647   -0.937315   -1.790061
H      7.672397   -0.264962   -0.563757
H      5.117131    1.534500    1.183669
H     -6.843340   -0.488604   -0.835262
H     -5.918281   -0.286301    0.663498
H     -5.049374    1.191741   -0.973392
H     -5.012829   -0.037795   -2.256199
H     -6.267630   -2.669403   -1.157641
H     -5.824510   -2.563416    0.596564
H      1.773240    2.435670   -1.670084
H      0.473883    1.318582   -1.993350
H     -0.342138    3.042298   -0.757701
H      0.841733    2.885413    0.598754
H     -2.149206    0.310904    2.399946
H     -3.195701   -1.014273    1.691595
H      1.375159    0.371752    1.433112
H      1.394055   -1.204924    0.618036
H     -2.283350    2.668155    0.689735
H     -2.030518    2.053532   -0.950144
H     -1.203297   -1.991626   -1.082068
H     -1.804781   -2.948316    0.318302
H     -3.931737    1.161897    0.853779
H     -0.643048   -1.434156    1.635754
H      1.918693   -0.310536   -1.451990
H     -2.778829    0.206033   -1.617410
H     -0.500583   -0.106072   -0.955207
