30

C      2.121723    1.119646    0.684796
C      1.704307   -1.223364   -0.386243
C      1.042608   -0.387376   -1.471581
C     -0.506640   -1.498744    0.591730
C      0.795826   -0.840581    0.794843
C      0.340754    0.721553   -0.749898
C     -1.541178   -0.765631   -0.156853
C     -1.139128    0.580273   -0.685225
C     -1.673465    1.642901    0.202023
N      0.789366    0.595338    0.648941
O     -2.660659   -0.582006    0.678054
O     -0.905983    2.470251    0.753296
O     -3.033171    1.775891    0.465485
Cl     0.689969    0.000000    0.000000
H      2.620260    1.147139   -0.310000
H      2.737819    0.600303    1.446525
H      2.030418    2.205425    0.984611
H      2.742953   -0.954504   -0.207051
H      1.615535   -2.300571   -0.582582
H      1.803617   -0.017213   -2.190656
H      0.320914   -1.042155   -1.980577
H     -0.883088   -1.836569    1.603653
H     -0.318569   -2.476258    0.053808
H      1.289206   -1.138262    1.755107
H      0.643013    1.687106   -1.179099
H     -1.933889   -1.343558   -1.037690
H     -1.572004    0.782074   -1.697296
H     -3.039608   -1.463968    0.923615
H     -3.390936    2.542860    1.048261
H     -0.689969    0.000000    0.000000
