85

C     -2.832388    4.348368   -1.218110
C      6.805568    1.559734   -0.025663
C      2.061332    0.484992   -2.330792
C      0.258140   -4.014710   -0.141847
C      0.962472   -4.347645    2.125513
C     -5.693013    2.644224   -2.451943
C     -4.589319   -0.701024    2.531946
C     -2.713996    3.131686   -1.477524
C     -2.550788    1.691095   -1.772872
C      4.043887    1.603707   -0.452111
C      5.788430    4.148717    2.461215
C      1.058647   -1.205513    0.877753
C     -2.428269   -3.231635    0.714931
C      6.012530    2.483938    0.796407
C      2.227071    0.046552   -0.893067
C      4.629922    2.447668    0.577427
C      6.597002    3.321566    1.728673
C      0.990774   -0.796964   -0.510371
C      4.425481    4.106603    2.241416
C     -3.850259    1.234343   -2.366303
C      2.675824    1.078111    0.043958
C     -1.979736   -1.745637    0.680503
C     -1.432482   -3.981183    1.577343
C      0.117486   -2.086481    1.565021
C      3.805984    3.286719    1.330578
C     -4.041457   -0.164706   -2.783668
C     -4.325050   -1.150503   -1.699475
C     -3.314961   -0.989148    0.617676
C      2.364708    3.180916    1.153404
C     -0.006959   -3.513727    1.221633
N     -3.964051   -1.253401   -0.573472
O      7.959426    3.334360    1.931083
O      0.747247   -1.681958   -1.518594
O      3.672909    4.954539    3.008502
O     -1.584233   -5.331217    1.426395
O     -5.150394   -0.156111   -3.685460
O     -5.228961   -2.192654   -2.158033
O      1.579982    3.889490    1.769607
O     -4.970158    1.742434   -1.676382
O     -4.119697   -1.629470    1.620611
O     -1.172736   -1.493843    1.730999
O      1.894774    2.209046    0.212183
H     -2.928245    5.455346   -0.965836
H      6.492522    0.496895    0.190661
H      7.871873    1.593339    0.116547
H      6.562393    1.737839   -1.096368
H      1.547757   -0.382458   -2.843241
H      1.315086    1.307342   -2.315631
H      3.029930    0.718161   -2.755366
H     -0.484853   -3.832003   -0.912831
H      0.184359   -5.175082   -0.025320
H      1.333396   -3.939317   -0.461645
H      1.081167   -3.818640    3.068525
H      1.861738   -4.549325    1.544838
H      0.443213   -5.314997    2.270391
H     -6.534956    3.084424   -1.919505
H     -5.042168    3.448364   -2.832382
H     -6.064022    2.124470   -3.393045
H     -5.201120    0.091157    2.034278
H     -3.861771   -0.280420    3.217127
H     -5.371315   -1.229007    3.181818
H     -2.204147    1.151941   -0.892188
H     -1.773700    1.650897   -2.559065
H      3.782695    2.253326   -1.339256
H      4.696969    0.765117   -0.711376
H      6.244175    4.803878    3.187509
H      2.108171   -1.650020    1.115059
H      1.151883   -0.235026    1.508642
H     -3.458811   -3.332708    1.094624
H     -2.381380   -3.605611   -0.301684
H      3.109722   -0.702265   -0.961165
H      0.153817   -0.000372   -0.642690
H     -3.900843    1.846972   -3.358276
H      2.926428    0.634334    1.046232
H     -1.501318   -1.584185   -0.273254
H     -1.553679   -3.698066    2.654085
H      0.467125   -2.084410    2.674268
H     -3.198661   -0.491929   -3.397791
H     -3.248096    0.055206    0.942750
H      8.606310    2.765572    1.456291
H     -0.004302   -1.452603   -2.126022
H      2.735640    5.094719    3.033416
H     -2.527377   -5.618052    1.441652
H     -6.004610   -0.256185   -3.222924
H     -5.191683   -3.107900   -1.700559
