44

C     -2.847275    2.205768    2.589436
C      1.532251    2.756696    2.425291
C     -2.498461    0.354200   -2.803906
C      3.309200   -1.187443   -1.056702
C      3.173192   -2.302243   -0.059119
C     -1.037523    0.190051   -3.041942
C     -2.938375    0.221311   -1.581155
C      2.454223   -0.190791   -1.015440
C      1.699869   -2.649000   -0.057280
C     -0.598007   -0.982669   -2.161649
C     -2.157452    1.124706    0.481369
C      1.884608    0.718763    1.094837
C     -2.122147   -0.082222   -0.376683
C      1.380515   -0.151657   -0.018451
C      0.919532   -1.470662    0.466767
C     -0.722582   -0.520725   -0.711151
O     -1.635536    2.210453    0.126475
O      2.922994    0.452296    1.747124
O     -2.782948   -1.105598    0.300739
O      1.023865   -1.574520    1.879175
O     -2.773242    1.104904    1.721663
O      1.167333    1.852493    1.400964
O      0.221432    0.447552   -0.509623
O     -0.405176   -1.603791    0.078320
H     -2.837501    1.903565    3.663762
H     -1.989002    2.880858    2.393993
H     -3.823118    2.703615    2.411760
H      0.773246    2.872590    3.201370
H      1.762539    3.726735    1.929948
H      2.518185    2.403616    2.834838
H     -3.172003    0.578764   -3.634172
H      4.116229   -1.215005   -1.806391
H      3.589091   -2.070962    0.919634
H      3.705766   -3.222378   -0.438584
H     -0.550071    1.108537   -2.617537
H     -0.788271    0.025862   -4.092048
H     -4.009699    0.342855   -1.414293
H      2.545626    0.615028   -1.731067
H      1.495486   -3.521755    0.625798
H      1.423208   -2.915513   -1.097232
H     -1.198936   -1.865880   -2.379314
H      0.489926   -1.105444   -2.365742
H     -3.690510   -0.737863    0.522355
H      0.469516   -2.325094    2.153864
