41

C      1.428886   -1.436720    0.788111
C      1.183256   -1.279630   -0.694755
C     -5.283829    0.015695    0.771179
C     -4.407241   -0.381613   -0.211720
C     -1.792986   -1.048568   -2.217871
C      2.309110   -0.344366    1.330725
C     -0.808291   -0.303409   -3.039899
C     -3.427683    0.994408    1.937369
C     -4.780782    0.712858    1.857903
C     -3.049036   -0.095340   -0.125431
C     -1.958035   -0.350897   -0.922460
C      0.508071    0.026956   -1.020250
C     -2.537992    0.602220    0.959509
C     -0.814192    0.167000   -0.355955
C      4.565466    0.638852    1.076084
Br    -5.992499    1.261650    3.215815
N      4.119267    1.705633    1.674654
N      5.939227    0.422056    0.808969
N      0.356841    0.171871   -2.430089
N      3.597030   -0.339881    0.683115
N     -1.217495    0.740130    0.792799
H      1.916553   -2.402434    0.950813
H      0.452758   -1.413770    1.296569
H      2.179688   -1.252099   -1.187825
H      0.656305   -2.147641   -1.112283
H     -6.341202   -0.203804    0.709997
H     -4.778587   -0.925625   -1.066344
H     -1.538980   -2.125828   -2.081455
H     -2.768556   -1.057214   -2.778288
H      2.498539   -0.573577    2.413768
H      1.820759    0.649521    1.257824
H     -0.523615   -0.961747   -3.904226
H     -1.349995    0.562458   -3.510353
H     -3.067110    1.543929    2.805207
H      1.180139    0.837455   -0.668408
H      4.806276    2.445148    1.976634
H      6.451208    1.136791    0.256309
H      6.437111   -0.420787    1.147469
H      0.754440    1.053576   -2.801041
H      3.855398   -1.013479   -0.054810
H     -0.578224    1.233117    1.472639
