31

C     -2.887879   -1.028650   -0.924884
C     -2.687410    0.072908    1.234365
C      3.586274   -0.556549   -0.037084
C      1.424698   -0.118211   -1.227383
C      0.166696   -0.904963   -1.077707
C      1.460357   -0.293484    1.259870
C     -2.020183   -0.111385   -0.120117
C      2.210806    0.106107    0.001598
C     -0.637197   -0.636111    0.128879
C      0.066356    0.324352    1.065789
S      0.290758    1.955756    0.369196
H     -3.912220   -1.150645   -0.464662
H     -3.080423   -0.596872   -1.930370
H     -2.492343   -2.049790   -1.026225
H     -3.770115   -0.236692    1.185066
H     -2.235048   -0.523591    2.024757
H     -2.668103    1.135718    1.547211
H      4.360019    0.139672   -0.373249
H      3.841530   -0.968963    0.956485
H      3.497729   -1.404695   -0.743527
H      1.234239    0.862573   -1.750480
H      2.082620   -0.679372   -1.956460
H      0.448280   -1.991847   -1.126246
H     -0.415877   -0.737676   -2.031738
H      1.404380   -1.386854    1.272383
H      1.949130    0.074669    2.165824
H     -2.018091    0.889594   -0.598682
H      2.430729    1.207353    0.129457
H     -0.765226   -1.585745    0.729883
H     -0.387190    0.352299    2.071114
H     -0.477295    2.217477   -0.753062
