91

C      5.002367   -3.752889    0.189935
C     -3.920668    0.039216    4.442502
C     -4.100951   -2.006048    3.108500
C     -5.887199   -0.359679    3.059371
C      9.272596    2.600335   -0.052449
C      8.498410    1.626005   -0.614255
C      8.691651    3.530879    0.789780
C     -5.954372    0.580724   -4.014123
C     -5.018659    1.445940   -4.803926
C      1.218773   -4.069835    2.150665
C      7.122610    1.577233   -0.333763
C      7.356522    3.455272    1.041088
C     -5.452205    0.395304   -2.570665
C     -3.563072    1.256181   -4.427125
C      1.557872   -2.941441    1.443647
C      2.130020   -5.086061    2.203383
C      4.123210    2.041012   -0.000955
C     -4.389648    1.891196   -0.834838
C      1.581804    1.642698   -0.347250
C     -2.446421    0.510727   -2.343712
C     -1.095465    0.686016   -0.434055
C      4.669791    2.914717    2.068625
C      3.683929   -3.856057    0.863048
C      6.538355    2.491543    0.497310
C     -4.621355    1.626199   -2.274731
C     -3.303548    1.576638   -2.961351
C      5.081515    2.463840    0.825075
C      2.840006    2.054695    0.360516
C      2.775696   -2.815881    0.797247
C      1.296450    0.182274   -0.005754
C     -3.346703    1.058842   -0.157497
C      3.368873   -5.008519    1.570473
C      0.024632   -0.236118   -0.738289
C      3.070163   -1.585251    0.049726
C     -4.065774    0.148681    0.767860
C     -4.361032   -0.541695    3.090798
N      2.390753   -0.603231   -0.121354
N     -3.829238    0.193266    2.004302
N     -2.396660    0.381311   -0.963993
O      4.240515   -6.048791    1.655883
O      0.343459   -0.354669   -2.074651
O      4.361144   -1.551851   -0.569358
O     -4.986962   -0.737153    0.263334
S      2.868347    2.694299    1.968266
H      4.893750   -3.666057   -0.908756
H      5.561751   -2.886782    0.609691
H      5.592765   -4.688628    0.359305
H     -4.745166   -0.035014    5.197800
H     -3.670863    1.115572    4.343788
H     -3.054851   -0.532413    4.857731
H     -3.233038   -2.277771    2.463730
H     -4.997773   -2.614332    2.866098
H     -3.821407   -2.352882    4.144996
H     -6.196242    0.305834    2.228234
H     -6.276518    0.087102    3.994313
H     -6.407821   -1.318936    2.885600
H     10.350144    2.654808   -0.256884
H      8.958346    0.906409   -1.267992
H      9.346877    4.271615    1.200279
H     -6.011488   -0.413918   -4.465135
H     -6.941621    1.082771   -4.007998
H     -5.306369    2.512823   -4.863230
H     -5.095510    1.083010   -5.867825
H      0.256566   -4.177896    2.664702
H      6.563513    0.799417   -0.799945
H      6.900944    4.197179    1.706061
H     -6.340516    0.340189   -1.912548
H     -4.857225   -0.511845   -2.464592
H     -2.974138    1.940381   -5.072206
H     -3.328435    0.192948   -4.648562
H      0.841215   -2.139716    1.419047
H      1.914951   -5.998371    2.747303
H      4.389306    1.657565   -1.029303
H     -4.183577    2.997201   -0.720797
H     -5.401526    1.789202   -0.332694
H      0.765700    2.243822    0.153726
H      1.668631    1.809751   -1.416939
H     -1.452556    0.623297   -2.857598
H     -2.838066   -0.463189   -2.774626
H     -1.192726    0.767148    0.670331
H     -0.906087    1.741275   -0.769739
H      5.227889    3.318573    2.945717
H     -5.191711    2.522614   -2.669243
H     -2.768627    2.532691   -2.879204
H      1.008747    0.240119    1.110308
H     -2.792784    1.790118    0.518298
H     -0.249743   -1.241853   -0.386682
H      5.133301   -6.216072    1.312059
H      0.117702   -1.260254   -2.437875
H      4.735125   -0.701744   -0.912670
H     -5.360369   -1.535637    0.756692
