68

C      9.351139    0.441053    1.315151
C      8.107830    0.707802   -0.783753
C      3.380229   -0.970614   -1.081280
C      4.308769   -0.940142    0.040859
C      2.351635   -0.184958   -1.233257
C      4.345233   -2.284182    0.788206
C     -7.841131   -2.381113   -0.485149
C     -9.123419   -1.961417   -0.186755
C     -6.766440   -1.502856   -0.414601
C      1.942370    0.848608   -0.320409
C      5.408087   -2.154500    1.908847
C     -2.360562    0.049654    0.539274
C     -1.862740    0.433711   -0.606187
C     -8.288512    0.205519    0.255868
C     -0.428327    2.950453   -0.094620
C     -4.615418    0.645423   -0.176463
C      8.312108   -0.196436    0.415076
C     -9.324423   -0.672474    0.177943
C     -3.840303   -0.234481    0.732915
C     -6.966528   -0.201027   -0.044593
C      0.497259    0.713753    0.160435
C     -0.464271    0.745643   -0.947322
C      0.177435    2.006782    0.863672
C     -0.480068    2.201967   -1.389770
C      6.698055   -1.837292    1.205088
C    -10.717269   -0.185801    0.483425
F    -10.777471    1.203150    0.409330
F    -11.588938   -0.756729   -0.406819
F    -11.098997   -0.544250    1.741500
O     -4.091143    0.254639    2.049127
O      0.366714    2.283479    2.033240
O      0.581370    2.570332   -2.173087
O      7.428665   -2.751793    0.707015
O     -5.972978    0.695439    0.039768
O      7.130390   -0.538898    1.073202
H      8.858398    1.066321    2.112289
H      9.988140   -0.300017    1.845281
H     10.021702    1.127752    0.762391
H      9.090086    0.861630   -1.265842
H      7.598932    1.652165   -0.540782
H      7.481751    0.172364   -1.540257
H      3.598695   -1.752866   -1.872324
H      4.287063   -0.078655    0.701253
H      5.370092   -0.898350   -0.394921
H      1.760321   -0.360649   -2.157390
H      4.764668   -3.025519    0.083960
H      3.387705   -2.578865    1.196072
H     -7.654527   -3.400275   -0.781151
H     -9.946130   -2.643445   -0.245763
H     -5.789954   -1.893450   -0.672528
H      2.523526    0.759608    0.650536
H      2.140973    1.871371   -0.669119
H      5.496080   -3.158729    2.347000
H      5.142496   -1.411279    2.645771
H     -1.663098   -0.056179    1.362680
H     -2.598960    0.537487   -1.451284
H     -8.411471    1.257274    0.550773
H     -1.481573    3.175866    0.208895
H      0.158784    3.895732   -0.181049
H     -4.217911    1.705546   -0.149743
H     -4.442394    0.271293   -1.244208
H      8.772383   -1.142018    0.045586
H     -4.074436   -1.285164    0.718246
H      0.398688   -0.085750    0.885000
H     -0.204495    0.076969   -1.801064
H     -1.464727    2.387915   -1.921195
H     -3.628006    1.143748    2.105150
H      0.958849    3.449725   -2.007616
