21

C     -0.264986   -0.997100    0.593784
C     -0.789153    1.246920    0.135118
C     -1.616089   -1.323070    0.507953
C     -2.113421    0.945133    0.047816
C      2.568276   -0.388597    0.444585
C      0.177299    0.283081    0.411309
C     -2.555031   -0.349337    0.232925
C      1.569570    0.728695    0.480077
O      2.503964   -1.135334   -0.716507
O     -3.923791   -0.659238    0.142319
O      1.820916    1.573475   -0.597327
H      0.483745   -1.756255    0.809990
H     -0.480114    2.292673   -0.019542
H     -1.962358   -2.338704    0.653215
H     -2.811188    1.730833   -0.167708
H      3.585055    0.088615    0.461830
H      2.535577   -1.016824    1.364917
H      1.730512    1.304655    1.412120
H      2.506475   -2.114560   -0.536301
H     -4.478387   -0.604894    0.995402
H      1.513129    2.489834   -0.407833
