27

C     -1.343772    0.476856    0.944845
C      3.075881    0.414369   -0.421197
C     -2.670633    0.088476    1.050865
C      3.513070    0.468409    1.027347
C      0.710074    0.979913   -0.369843
C     -1.405175    0.258248   -1.403319
C     -0.699788    0.566577   -0.265113
C      1.679809   -0.161109   -0.301058
C     -3.361284   -0.216332   -0.097841
C     -2.748383   -0.137797   -1.329760
C      2.867976   -0.749951    1.580364
O     -4.680233   -0.604669   -0.019179
O     -3.422956   -0.439915   -2.503392
O      3.390567   -1.508082    2.437494
O      1.632983   -0.829506    0.954191
H     -0.788024    0.718486    1.826523
H      3.056026    1.430393   -0.889897
H      3.763934   -0.266171   -0.956400
H     -3.191956    0.012897    1.995701
H      4.616539    0.435490    1.128778
H      3.078072    1.338962    1.551312
H      0.983085    1.682129    0.467492
H      0.925196    1.542599   -1.301946
H     -0.958821    0.307967   -2.388190
H      1.519614   -0.920250   -1.081085
H     -5.166055   -0.675755    0.853625
H     -4.375745   -0.724183   -2.490316
