22

C      3.088839    0.711348   -0.582547
C      1.865399    1.329398   -0.485801
C      3.205103   -0.644044   -0.369007
C     -0.650493    0.950737   -0.006310
C     -0.429418   -1.408343    0.367599
C     -2.630176   -0.318255    0.742639
C     -1.388965   -0.379051   -0.144129
C      0.773585    0.503055   -0.162777
C      0.893352   -0.839266    0.048034
N      2.137684   -1.389873   -0.063812
O     -3.470692    0.704747    0.374841
H      3.974497    1.285243   -0.828013
H      1.724447    2.393008   -0.645116
H      4.212797   -1.080742   -0.461159
H     -0.958771    1.597637   -0.859936
H     -0.829914    1.433080    0.951410
H     -0.587086   -2.412990   -0.068405
H     -0.558161   -1.466167    1.487150
H     -3.166295   -1.291260    0.590845
H     -2.291737   -0.203012    1.790381
H     -1.646708   -0.600737   -1.192507
H     -3.267286    1.125487   -0.483379
