22

C      3.018362    0.017737   -0.151418
C      2.743259   -0.981315    0.747390
C      1.999782    0.836273   -0.618780
C      1.449523   -1.163292    1.180069
C     -0.399405    1.490993   -0.649932
C     -1.702368    0.736360   -0.751609
C      0.709574    0.637755   -0.172965
C      0.437443   -0.372559    0.734653
C     -1.998400   -0.080141    0.475704
C     -2.808390   -1.247088    0.061713
Cl    -2.306977   -2.875674    0.423733
O     -3.842907   -1.061352   -0.542426
O     -0.864318   -0.530784    1.149102
H      4.020259    0.197709   -0.519324
H      3.559764   -1.621518    1.108633
H      2.179860    1.633519   -1.327485
H      1.259865   -1.956219    1.887250
H     -0.525352    2.368437    0.010570
H     -0.166190    1.865939   -1.668447
H     -1.676745    0.063581   -1.638979
H     -2.511633    1.481333   -0.917807
H     -2.575007    0.560309    1.180355
