24

C     -2.587337   -0.507081    0.296208
C     -0.309754   -0.501859   -0.589499
C      2.056484   -1.184914    0.109392
C      3.138372    0.697139   -0.189614
C     -1.129552   -0.220270    0.649027
C      1.136561   -0.251750   -0.350515
N     -1.069637    1.185226    1.002911
N      3.259664   -0.580072    0.196373
N      1.850398    0.876568   -0.515818
Br     0.764590    0.000000    0.000000
Br     0.762984    0.000000    0.000000
H     -2.720899   -0.134208   -0.755051
H     -2.808985   -1.589043    0.322875
H     -3.278330    0.063239    0.962307
H     -0.512632   -1.526964   -0.961402
H     -0.711099    0.186459   -1.389209
H      1.838497   -2.216333    0.353515
H      3.955295    1.433498   -0.222361
H     -0.841048   -0.832026    1.507207
H     -0.699213    1.727768    0.193130
H     -2.024813    1.584978    1.209034
H      1.458029    1.789644   -0.857211
H     -0.764590    0.000000    0.000000
H     -0.762984    0.000000    0.000000
