49

C      4.145204   -2.076450    0.021490
C      4.051235   -1.187891    0.994062
C     -4.578946   -1.181473    1.771548
C     -5.566880   -1.320375    0.839940
C     -3.332773   -0.684705    1.359980
C     -5.349316   -0.982156   -0.471333
C     -1.714466    0.492269   -1.645829
C      2.723464    1.913112   -0.622407
C     -2.748083    0.335853   -2.558790
C      2.176034    2.383855    0.714701
C      1.374609   -0.163267   -0.560264
C      2.196650    0.247098    1.801212
C      3.390986    0.109766    0.851233
C      2.815857    0.380046   -0.521868
C     -3.093782   -0.341273    0.052025
C     -1.834121    0.162649   -0.306758
C     -4.112212   -0.487745   -0.886753
C      0.516206    0.848642    0.161691
C     -0.778064    0.286749    0.692159
N     -3.922764   -0.147496   -2.174361
N      1.362538    1.297636    1.289893
O     -0.556830   -0.858050    1.453223
Cl     0.689931    0.000000    0.000000
O     -0.001898    0.384700   -0.000000
H      3.757254   -1.965521   -0.980686
H      4.660532   -3.039952    0.201671
H      4.497144   -1.449298    1.957929
H     -4.753858   -1.449046    2.805597
H     -6.547933   -1.699028    1.101452
H     -2.575906   -0.567669    2.122172
H     -6.126526   -1.084828   -1.235080
H     -0.767720    0.908894   -1.968670
H      2.106994    2.224924   -1.470620
H      3.776071    2.264496   -0.675265
H     -2.598113    0.607491   -3.584737
H      1.452860    3.200670    0.497282
H      2.961229    2.714024    1.403416
H      1.315573   -1.184414   -0.138883
H      1.119830   -0.234435   -1.624075
H      2.544325    0.443705    2.837952
H      1.695930   -0.729401    1.786626
H      4.080686    0.954631    1.139240
H      3.432699   -0.024733   -1.330934
H      0.340333    1.696707   -0.509090
H     -1.079976    1.059617    1.494406
H     -0.455975   -1.673629    0.879858
H     -0.689931    0.000000    0.000000
H     -0.808581   -0.193056   -0.000000
H      0.810479   -0.191644    0.000000
