22

C      3.213515    0.439388   -0.472133
C      2.093174    1.194183   -0.131712
C      3.074335   -0.900368   -0.733949
C     -0.512970    1.135117    0.275103
C     -0.672449   -1.154599   -0.184834
C     -2.700211    0.003218    0.730053
C     -1.200176   -0.125384    0.759196
C      0.847164    0.606240   -0.055918
C      0.754626   -0.744993   -0.327673
N      1.850436   -1.451716   -0.653946
O     -3.201507    0.251605   -0.521930
H      4.192962    0.902988   -0.531402
H      2.165682    2.237185    0.077901
H      3.967992   -1.448896   -0.994122
H     -0.940809    1.480543   -0.695381
H     -0.479025    1.922719    1.033867
H     -1.119710   -1.039957   -1.211850
H     -0.776015   -2.194514    0.177600
H     -3.104185   -0.972125    1.106421
H     -3.010286    0.756823    1.480506
H     -0.831571   -0.335251    1.761659
H     -3.610971   -0.562209   -0.887456
