68

C      4.239907    2.665231    1.304303
C      2.599788   -5.037269    0.995792
C     -2.793649   -1.916675   -1.012243
C      4.465291    1.273271   -1.232917
C      2.274630    2.248556   -1.933832
C      3.407196    3.010854    0.111109
C     -1.122683   -2.072403   -2.722857
C     -0.156827   -2.920328   -2.470606
C     -1.979856    1.172244    0.119391
C     -1.222994   -0.068505    0.503011
C      1.127757   -4.019616   -0.720255
C      2.445366   -2.631850    0.700380
C     -3.326985    3.008886    1.107804
C     -5.549822    1.983144    1.264217
C      1.625428   -3.900802    0.679090
C     -1.619744   -1.196429   -1.643387
C      0.410912   -2.989049   -1.143155
C     -4.603868    2.739265    0.374630
C     -2.552372    1.760216    1.404954
C     -0.592312   -0.773898   -0.659276
C      1.573645   -1.452132    0.439326
C     -4.799089    0.852818    1.862216
C      0.245068   -1.908580   -0.122499
C      2.489028    0.768874    0.047620
C      3.117689    1.815473   -0.765110
O     -5.199480    3.976136    0.079447
O     -5.462177   -0.141184    2.255080
O      2.204578    1.026326    1.241521
O     -3.433325    0.825871    2.011957
O      2.181848   -0.499232   -0.410891
H      5.289481    1.990797   -1.021599
H      4.735105    0.334458   -0.700855
H      4.476331    1.052366   -2.306036
H      1.219058    2.246894   -1.595011
H      2.443756    1.655189   -2.839826
H      2.530945    3.308221   -2.152508
H      4.792060    1.715545    1.200765
H      5.009712    3.450973    1.488593
H      3.633215    2.609822    2.243876
H      3.620978   -4.807153    0.628513
H      2.619455   -5.229927    2.075861
H      2.246184   -5.920289    0.433721
H     -3.405696   -1.294574   -0.363405
H     -2.445202   -2.799448   -0.439908
H     -3.405953   -2.320415   -1.860740
H      2.404257    3.350528    0.503379
H      3.792792    3.874979   -0.466409
H     -1.515919   -2.058843   -3.737857
H      0.246163   -3.597594   -3.246925
H     -1.291852    1.923270   -0.298790
H     -2.807483    1.017321   -0.566513
H     -0.418141    0.226122    1.204355
H     -1.847147   -0.804161    1.040946
H      1.323638   -4.865031   -1.353835
H      3.198255   -2.684428   -0.136372
H      2.958086   -2.602342    1.682614
H     -3.581505    3.492991    2.071378
H     -2.683569    3.740100    0.541909
H     -6.371016    1.601918    0.615152
H     -5.960947    2.667098    2.058780
H      0.824203   -3.871209    1.425619
H     -1.983722   -0.258013   -2.157520
H     -4.472681    2.219708   -0.582161
H     -1.734166    1.995053    2.117671
H      0.100468   -0.065183   -1.157999
H      1.425113   -0.955283    1.444863
H     -0.338418   -2.365360    0.703964
H     -4.618785    4.426688   -0.599914
