29

C     -1.954213    0.936814   -1.305389
C     -2.567006   -0.199575    0.780765
C      1.650721   -0.763653   -1.241527
C      1.104292   -1.994997    0.777521
C     -0.492927    1.156930    0.632515
C      0.838333    0.458147    0.801403
C      1.931992    1.362714    0.501660
C     -1.375199    0.203160   -0.094547
C      0.739287   -0.761558   -0.040827
N     -0.604707   -0.926515   -0.491480
O      2.780591    1.609893    1.394871
O      2.136581    2.001371   -0.716889
O     -1.166602   -2.088930   -0.146488
H     -2.592701    1.753810   -0.914617
H     -2.597273    0.210055   -1.839409
H     -1.155086    1.336311   -1.939977
H     -2.445495   -1.272767    1.090166
H     -2.635211    0.428047    1.678668
H     -3.508773   -0.173315    0.195410
H      1.522554   -1.763823   -1.730502
H      2.692926   -0.730802   -0.884431
H      1.405497   -0.015335   -1.994250
H      1.311522   -2.847601    0.095365
H      2.063681   -1.775552    1.301871
H      0.292921   -2.245514    1.494926
H     -0.954760    1.424776    1.616752
H     -0.334213    2.118121    0.105897
H      0.891912    0.155702    1.865179
H      3.021358    2.404083   -0.992634
