68

C      2.497985    1.356380    3.616605
C      3.866970   -1.152476   -4.452849
C     -1.682013   -2.677390   -0.367396
C      1.226410   -1.217021    3.003622
C      3.417759   -2.168423    2.498051
C      3.277047    0.073720    3.439554
C     -1.562805   -1.752027   -2.608154
C     -0.841350   -1.137257   -3.524403
C     -2.694519    0.260451    0.015138
C     -1.481034    0.525475   -0.809726
C      1.516337   -0.821538   -4.000856
C      3.019575   -0.908089   -2.167042
C     -3.054328    2.716474    0.356871
C     -4.562626    2.765301    2.361192
C      2.889498   -0.368135   -3.605536
C     -0.862264   -1.877167   -1.299652
C      0.501152   -0.684140   -3.123685
C     -3.942911    3.543029    1.244555
C     -3.663143    1.447381   -0.109372
C     -0.423952   -0.517108   -0.800992
C      2.021144   -0.238415   -1.263596
C     -5.004455    1.422373    1.902847
C      0.659975   -0.067188   -1.793408
C      2.551528   -0.266068    1.137286
C      2.605034   -0.874311    2.469073
O     -4.981579    4.033134    0.441290
O     -5.469880    0.566390    2.732685
O      2.985576    0.902404    0.972589
O     -4.881112    1.164858    0.547844
O      2.043024   -0.899113    0.008924
H      0.446587   -0.518964    2.586189
H      1.290189   -1.125320    4.116482
H      0.978564   -2.281181    2.803914
H      2.756369   -3.030101    2.572847
H      4.197657   -2.154029    3.286454
H      3.906764   -2.224027    1.489141
H      2.939981    2.205975    3.049114
H      1.453419    1.143125    3.330928
H      2.488256    1.667798    4.685857
H      3.886153   -0.765825   -5.496636
H      4.892416   -1.158735   -4.020334
H      3.452224   -2.198158   -4.538701
H     -1.202920   -3.696121   -0.256287
H     -2.708525   -2.943922   -0.761881
H     -1.719091   -2.302647    0.679921
H      3.399485   -0.382328    4.445944
H      4.312797    0.298833    3.085688
H     -2.550126   -2.121028   -2.791529
H     -1.165981   -0.956090   -4.540017
H     -3.207019   -0.681939   -0.233370
H     -2.442921    0.215196    1.096090
H     -1.016909    1.482604   -0.439236
H     -1.774963    0.782652   -1.869264
H      1.344483   -1.234540   -4.949788
H      4.051146   -0.624411   -1.834443
H      2.973096   -1.994563   -2.154853
H     -2.753766    3.347682   -0.503422
H     -2.142953    2.464706    0.947215
H     -5.397486    3.280882    2.850837
H     -3.754853    2.574102    3.121641
H      3.027087    0.707737   -3.641307
H      0.119723   -2.434782   -1.445434
H     -3.382891    4.425889    1.615578
H     -3.902141    1.546119   -1.188050
H      0.014110   -0.656385    0.193999
H      2.465722    0.800631   -1.105049
H      0.508247    1.049360   -1.997781
H     -5.752969    4.340298    0.988082
