47

C      4.840621    1.517076   -0.337568
C      5.683902   -0.015721    1.449272
C      2.301397   -3.064714    0.676414
C     -2.627304    0.263394   -1.769497
C     -2.557557    1.051441    0.616081
C     -4.079865    0.649111   -1.608499
C     -3.682184    0.070866    0.799310
C     -0.524646    0.091371   -0.467469
C      4.589091    0.942078    1.039799
C      1.959913   -1.667743    0.142760
C     -1.835905    0.907919   -0.684009
C     -4.609539    0.002151   -0.381784
C     -5.943365    0.558772   -0.061799
C      3.311716    0.188515    1.045650
C      1.145658   -0.718703   -1.991418
N      0.240093    0.062082   -1.641964
O     -6.428361    1.436435   -0.799922
O     -6.693002    0.147109    1.034832
O      2.377282    0.525019    1.812155
O      1.743108   -0.495830   -3.259391
O      3.170810   -0.892896    0.189140
O      1.539030   -1.742890   -1.181154
H      4.395095    0.866588   -1.118438
H      5.914199    1.669750   -0.453998
H      4.337885    2.501289   -0.381632
H      6.542431    0.525200    1.883932
H      5.243535   -0.680954    2.233274
H      6.001866   -0.641839    0.585057
H      1.632544   -3.835290    0.252426
H      3.359213   -3.239201    0.463265
H      2.163747   -3.080374    1.775639
H     -2.295138    0.658458   -2.753319
H     -2.510316   -0.837640   -1.783832
H     -2.907271    2.091599    0.807932
H     -1.818943    0.836782    1.442697
H     -4.644900    0.302316   -2.494845
H     -4.141515    1.749613   -1.531692
H     -4.279860    0.411102    1.670803
H     -3.263768   -0.914899    1.066803
H     -0.844691   -0.886430   -0.051584
H      0.026344    0.627372    0.345115
H      4.520187    1.757627    1.758179
H      1.226125   -1.268041    0.860968
H     -1.517287    1.912870   -1.029885
H     -4.780261   -1.092884   -0.591303
H     -7.605879    0.537265    1.259114
H      1.325763    0.214879   -3.878896
