47

C      5.754383    2.841319    0.094598
C      6.283083    0.583409    0.907829
C      1.987590   -0.957396   -2.039614
C     -3.823831   -1.535106    0.931746
C     -2.221156    0.397456    0.802410
C     -4.615940   -0.883307   -0.183555
C     -3.223959    1.099932   -0.038967
C     -1.625927   -1.857110   -0.104360
C      5.589266    1.371262   -0.210702
C      2.284579   -0.508292   -0.638322
C     -2.414676   -1.067226    0.944141
C     -4.636757    0.613905    0.150841
C     -5.531372    1.351295   -0.753887
C      4.165479    1.040413   -0.296131
C      0.703646   -1.993846    0.492662
N     -0.248035   -1.460405   -0.153168
O     -5.102640    2.270271   -1.481671
O     -6.898663    1.038471   -0.822424
O      3.299343    1.933489   -0.122329
O      0.475542   -3.061687    1.344164
O      3.689028   -0.244383   -0.566940
O      1.987349   -1.489860    0.334084
H      4.976126    3.090325    0.863043
H      6.749398    3.087100    0.515367
H      5.564019    3.414767   -0.833330
H      6.199020    1.135997    1.863640
H      5.793978   -0.410044    1.036955
H      7.335795    0.391401    0.654319
H      2.450400   -0.242073   -2.738668
H      2.426499   -1.968727   -2.242127
H      0.917476   -1.031733   -2.266289
H     -3.830706   -2.625389    0.724003
H     -4.380333   -1.301647    1.877982
H     -1.211335    0.557320    0.321541
H     -2.141742    0.926853    1.794510
H     -4.027688   -0.962116   -1.121281
H     -5.619326   -1.288793   -0.288503
H     -3.172027    2.189250    0.199933
H     -3.012124    1.039326   -1.138750
H     -2.077940   -1.560399   -1.091967
H     -1.793280   -2.931097   -0.005939
H      6.118639    1.118635   -1.160847
H      1.736239    0.432563   -0.450776
H     -1.959982   -1.375324    1.930050
H     -4.976524    0.722115    1.203459
H     -7.577808    1.763300   -1.025145
H     -0.363107   -3.654214    1.257428
