38

C      0.347654   -0.808052   -1.979655
C     -1.497318   -1.842222   -0.779147
C      0.850141   -1.770819    0.932047
C     -1.931879    1.132474   -1.934164
C     -1.085137   -0.234409    1.394869
C     -2.167610    0.301019    0.447325
C      1.637412    1.233350    1.474453
C      0.903145    0.685383    0.307244
C      2.741488    0.362103    1.938403
C     -0.233291    1.615568   -0.152960
C     -0.563609   -0.679714   -0.828779
C      0.122121   -0.566702    0.531384
C     -1.264814    0.661727   -0.727445
O      2.646704   -0.244031    3.031436
O      3.913477    0.167932    1.204093
O      0.177351    2.584373   -1.022710
H     -0.305520   -1.112839   -2.854913
H      1.010187   -1.687578   -1.823882
H      0.862395    0.091677   -2.324916
H     -0.960193   -2.713982   -1.256536
H     -1.779703   -2.185854    0.215205
H     -2.344664   -1.632914   -1.464262
H      1.918289   -1.669258    0.672949
H      0.488146   -2.718662    0.454266
H      0.776259   -1.905457    2.030513
H     -2.767564    0.491114   -2.198682
H     -2.310241    2.157690   -1.755818
H     -1.181903    1.214955   -2.746605
H     -1.447288   -1.116374    1.943393
H     -0.909567    0.572741    2.113863
H     -2.910537   -0.455058    0.176933
H     -2.642947    1.215312    0.837955
H      2.102168    2.235915    1.249604
H      0.936056    1.345415    2.355288
H      1.640476    0.596497   -0.523160
H     -0.628567    2.111922    0.781823
H      4.805917    0.111855    1.701908
H      1.052964    2.454905   -1.421318
