36

C      0.001729   -1.921493    0.264717
C      4.577825    0.224848   -1.029979
C      3.669704    1.086543   -1.605282
C      4.142623   -0.530401    0.037252
C     -3.581832    1.074634    0.360856
C     -3.870382   -0.006727   -0.673418
C      2.372214    1.189641   -1.130458
C      2.843333   -0.425402    0.510596
C     -2.053389    1.153660    0.240042
C     -2.685163   -0.926713   -0.522999
C     -0.358294   -0.521770   -0.097512
C      1.927728    0.437149   -0.062094
C      0.528352    0.539603    0.464267
N     -1.720098   -0.261600    0.333730
O      0.517204    0.591744    1.851040
Cl     0.690946    0.000000    0.000000
H      0.750357   -2.385492   -0.417580
H      0.306525   -2.046335    1.321175
H     -0.924381   -2.553130    0.156705
H      5.602853    0.134729   -1.394631
H      4.015500    1.681135   -2.446387
H      4.853745   -1.214256    0.497347
H     -4.066474    2.028409    0.144368
H     -3.794302    0.639444    1.345864
H     -3.848775    0.515449   -1.672362
H     -4.841742   -0.511160   -0.495038
H      1.661090    1.878427   -1.597349
H      2.521251   -1.021982    1.346834
H     -1.830232    1.583570   -0.734085
H     -1.668198    1.720623    1.113667
H     -2.205992   -1.084165   -1.526282
H     -3.035836   -1.895316   -0.112251
H     -0.361291   -0.427668   -1.207025
H      0.086799    1.522352    0.119158
H      0.467550   -0.268350    2.298036
H     -0.690946    0.000000    0.000000
