35

C      0.137760    1.856296    1.181815
C      0.340203   -1.309309    1.359511
C     -2.111843   -0.989517    0.451124
C     -1.860573    0.366020    1.055835
C      1.254167   -0.496709   -0.815861
C     -1.086832   -1.069270   -0.672704
C     -1.457921   -0.001290   -1.629661
C     -0.897139    1.244636   -1.012610
C     -0.546271    0.835086    0.402901
C      0.119211   -0.464812    0.120717
Br    -1.003522   -0.255056   -3.451226
O     -0.738543    2.336373   -1.478201
O      3.873533   -0.165780   -1.608571
O      3.401699   -0.883811    0.790589
O      2.953323    1.411063    0.203376
S      2.822344    0.028946   -0.270679
N      0.010407    0.008529    0.224264
H     -0.652662    2.421999    1.777952
H      0.868958    1.544235    1.914412
H      0.563342    2.641126    0.525615
H      0.320756   -2.377631    1.003050
H     -0.424248   -1.224556    2.122411
H      1.317168   -1.068190    1.822940
H     -2.096014   -1.825789    1.132594
H     -3.124609   -0.952504   -0.035677
H     -1.751321    0.287107    2.133988
H     -2.677262    1.088665    0.806460
H      1.391976   -1.575176   -1.138788
H      0.948236    0.004194   -1.775353
H     -0.880361   -2.050493   -1.041120
H     -2.586042    0.132770   -1.597167
H      3.582487    0.511377   -2.277675
H      0.991663   -0.177916   -0.076501
H     -0.643793   -0.759560   -0.072102
H     -0.358277    0.928947   -0.075661
