52

C     -0.661799   -1.498017    3.335155
C     -0.180355   -3.000410    1.385979
C      4.231346    1.750404    0.871548
C     -4.021129    3.797456    0.858324
C     -2.268809   -1.794432   -2.626951
C      1.644423   -1.188087   -2.266370
C      2.788753   -0.832886   -2.945917
C     -0.274734    0.572144    2.057991
C      2.337674    0.060260   -0.417142
C     -2.039700    1.740150    0.839305
C      0.243818   -0.796048    2.312009
C      0.507750   -1.645457    1.140636
C      1.381567   -0.754022   -0.982470
C     -1.067663    0.743039    0.852305
C      3.714976   -0.018532   -2.342920
C      3.500448    0.437494   -1.071688
C     -2.828728    1.960641   -0.256005
C      0.163756   -1.102997   -0.208011
C     -0.861611   -0.061703   -0.238417
C     -2.635187    1.162182   -1.358258
C     -1.656314    0.162962   -1.336177
O      4.895231    0.371545   -2.991975
O     -3.435084    1.387932   -2.464343
O      4.430756    1.274307   -0.424429
O     -3.773659    2.951194   -0.229721
O     -1.515191   -0.603669   -2.477904
H     -1.719594   -1.431694    3.062255
H     -0.522194   -0.910856    4.289900
H     -0.298547   -2.514276    3.558574
H     -0.229356   -3.477431    0.365428
H     -1.214621   -2.860145    1.700093
H      0.428837   -3.650692    2.030743
H      4.344563    0.936015    1.645257
H      3.270028    2.290449    1.013583
H      5.039357    2.478550    1.090730
H     -4.630720    4.657377    0.564609
H     -4.504846    3.259445    1.718619
H     -3.023036    4.142297    1.243890
H     -3.052245   -1.694920   -3.400828
H     -2.726687   -2.060462   -1.636662
H     -1.551626   -2.620096   -2.873214
H      0.892680   -1.838601   -2.718265
H      2.970214   -1.181071   -3.938993
H     -0.921173    0.858921    2.939859
H      0.541756    1.342022    2.061015
H      2.215543    0.453859    0.604561
H     -2.168127    2.352751    1.723337
H      1.213955   -0.656899    2.881536
H      1.600956   -1.939310    1.087744
H     -0.292579   -1.973559   -0.779456
H      5.119089    0.074987   -3.926159
H     -3.402162    0.887889   -3.322710
