21

C     -1.794406    0.058211   -1.287948
C     -1.325013   -0.910202    0.893158
C      0.213563    0.775429   -0.139553
C     -0.668620   -0.413299   -0.373037
C      1.390420    0.492025    0.751864
C      2.285441   -0.559117    0.211106
O      2.144177    1.670083    0.809712
O      3.359635   -0.315200   -0.395447
O      1.943534   -1.894014    0.368707
Na     0.000000    0.000000    0.000000
H     -1.897299    1.164370   -1.258245
H     -1.523500   -0.195132   -2.332404
H     -2.773357   -0.379996   -0.994563
H     -1.381420   -2.024319    0.936800
H     -2.394532   -0.562341    0.972708
H     -0.826263   -0.555905    1.809966
H      0.570046    1.137654   -1.106389
H     -0.386791    1.561425    0.339417
H     -0.168981   -1.265494   -0.846570
H      1.099428    0.178067    1.767079
H      2.133938    2.037756   -0.126360
