49

C      4.436933    0.604213    1.869660
C      4.549928    1.912787   -0.243509
C     -3.756412    1.519408    1.672449
C     -3.859129    1.556207   -0.758125
C     -1.942300   -0.917837   -1.771508
C      4.065971   -1.721645   -2.289965
C     -3.298587   -1.732470    0.964545
C     -4.125504   -0.612066    0.469479
C     -1.935550   -1.894864    0.436458
C     -0.964187    1.209230    0.722050
C      4.206372    0.582877    0.372307
C      0.282472    0.550896    0.345232
C     -1.963239    0.477184    0.297799
C      2.813851    0.178734    0.136238
C      0.025214   -0.566156   -0.299359
C      1.671258    0.980920    0.596215
C      1.181620   -1.353203   -0.750574
C      2.554951   -0.935357   -0.506646
C     -3.423670    0.715735    0.432151
C     -1.418697   -0.701971   -0.380958
O      1.942036    2.045007    1.210302
O      1.020181   -2.432827   -1.373373
O      3.609908   -1.712832   -0.952558
H      5.188269    1.381075    2.125878
H      3.503882    0.795165    2.421159
H      4.840228   -0.363867    2.199328
H      4.217398    2.725435    0.423240
H      5.663405    1.948465   -0.334730
H      4.139310    1.962604   -1.255181
H     -3.891836    0.803986    2.534541
H     -4.746669    2.010102    1.543512
H     -3.010813    2.291403    1.889887
H     -3.021157    2.179894   -1.134259
H     -4.341509    0.949057   -1.548148
H     -4.648736    2.301017   -0.444030
H     -2.242362    0.030704   -2.262280
H     -2.795726   -1.627374   -1.793431
H     -1.189746   -1.382178   -2.450092
H      4.911135   -2.430373   -2.346922
H      3.272449   -2.063475   -2.977858
H      4.443721   -0.713168   -2.601163
H     -3.244342   -1.644729    2.089763
H     -3.880515   -2.679694    0.801562
H     -4.991226   -0.496946    1.190302
H     -4.651429   -0.823336   -0.508121
H     -1.183660   -2.098156    1.245702
H     -1.873062   -2.789043   -0.235107
H     -1.017470    2.170960    1.276417
H      4.877040   -0.189493   -0.048283
