49

C      6.834642   -0.045611   -0.948579
C     -6.507201    0.208570   -0.593881
C     -5.668497    1.302029   -0.565618
C     -5.943329   -1.040790   -0.400386
C     -4.308145    1.216920   -0.356355
C     -4.587854   -1.118579   -0.192432
C      2.943541    0.601299    1.816778
C      3.130131   -1.364327    0.509851
C     -1.107907    1.350481   -1.201033
C      4.157088    1.023263    1.332923
C      4.346095   -0.977014    0.003491
C      0.009541    0.508683   -1.746232
C      1.132305   -1.045335    1.921769
C     -0.271616    0.700942    1.023982
C     -1.880250   -1.578804    0.145929
C      2.422862   -0.599902    1.405137
C     -3.739720   -0.003379   -0.164649
C     -1.509484    0.935912    0.201034
C      4.833353    0.235433    0.442338
C     -0.347348   -1.480818    0.069022
C      0.053378   -0.856568   -1.223402
N     -0.000442   -0.663958    1.199222
N     -2.353594   -0.212959    0.063866
O      0.517844   -1.664917   -2.011418
O      6.056752    0.680416   -0.033545
H      6.189027   -0.418216   -1.773088
H      7.624112    0.655006   -1.336364
H      7.358503   -0.900901   -0.449755
H     -7.573783    0.304402   -0.760517
H     -6.122735    2.273556   -0.718420
H     -6.556043   -1.942790   -0.412003
H     -3.703933    2.114133   -0.347776
H     -4.191016   -2.130980   -0.044116
H      2.401348    1.243849    2.537424
H      2.748176   -2.336189    0.152828
H     -2.023862    1.280642   -1.826255
H     -0.788170    2.411663   -1.146310
H      4.546568    1.989808    1.682136
H      4.895364   -1.578033   -0.696268
H      0.985617    1.042752   -1.587780
H     -0.121769    0.470148   -2.847405
H      1.036175   -0.659200    2.978385
H      1.116672   -2.164286    2.048745
H      0.576429    1.200526    0.512289
H     -0.335966    1.204532    2.026169
H     -2.257852   -2.212601   -0.676936
H     -2.089682   -2.043979    1.133093
H     -2.018093    1.808812    0.656921
H      0.092770   -2.466530    0.197194
