52

C     -5.572446    0.345328   -0.013965
C     -5.346972   -2.180900   -0.276101
C      6.977714   -1.442099   -1.449219
C      3.481534    0.202126    1.449133
C      3.059008   -1.712616    0.142474
C     -1.231045    2.595286    0.893641
C      4.745617    0.267806    0.918881
C      4.330034   -1.648928   -0.392767
C     -0.122206    2.939073   -0.041147
C     -3.590850   -0.668804   -1.064169
C     -3.017513    0.687479   -1.267762
C      1.229211   -0.863966    1.662874
C     -0.943412    0.194933    1.560210
C     -0.699528    0.008301   -1.081124
C     -4.774081   -0.811958   -0.482151
C      2.590049   -0.801458    1.072837
C     -1.755761    1.187838    0.740825
C      5.193378   -0.657147   -0.012450
C      0.553005    0.394745   -0.302923
C      0.773393    1.856622   -0.420407
N     -1.781608    0.771866   -0.594507
N      0.416785    0.130431    1.089579
O      1.841521    2.161699   -0.895125
O      6.480859   -0.528152   -0.504025
H     -5.137499    0.846383    0.869050
H     -5.707945    1.127198   -0.795359
H     -6.590706    0.005368    0.271923
H     -5.856107   -2.231351    0.715143
H     -4.588897   -2.960296   -0.333200
H     -6.114147   -2.338233   -1.051228
H      6.290033   -1.498203   -2.314813
H      7.041902   -2.451686   -1.000444
H      8.000437   -1.112419   -1.756483
H      3.138615    0.929949    2.178288
H      2.420319   -2.512278   -0.190640
H     -0.966976    2.791805    1.955571
H     -2.086667    3.269533    0.665512
H      5.427217    1.066237    1.230444
H      4.672383   -2.384722   -1.127781
H     -0.537883    3.376283   -0.997123
H      0.467408    3.757465    0.451726
H     -3.052152   -1.570682   -1.387563
H     -2.849955    0.899629   -2.345128
H     -3.706512    1.425733   -0.812266
H      0.819693   -1.884403    1.446804
H      1.331792   -0.746327    2.773865
H     -1.422208   -0.794571    1.393505
H     -1.032030    0.444923    2.615230
H     -0.520172    0.188919   -2.138548
H     -0.879514   -1.066003   -0.875972
H     -2.780027    1.173810    1.162669
H      1.382914   -0.179564   -0.742498
