55

C     -3.565295    4.106831   -1.428187
C      6.931892    1.955136    0.370621
C     -2.122479   -3.564215   -0.996835
C     -1.624244   -3.172805    2.178389
C     -3.479428    3.001192   -0.718645
C      3.074036    0.561350    1.076122
C      3.267314   -0.911882   -0.769043
C      4.354654    0.999216    0.812870
C      4.548284   -0.480190   -1.039737
C     -1.914727    0.612417    1.375430
C     -2.600997   -0.672076    1.076875
C     -3.359575    1.690686   -1.390340
C      1.135787   -0.918915    0.512835
C     -0.013322    1.123746   -0.110781
C     -1.884547   -0.224134   -1.561565
C      2.517048   -0.411050    0.273437
C     -1.506126    1.390502    0.159320
C      5.108023    0.501468   -0.227924
C     -0.951874   -1.033484   -0.710690
C     -1.755409   -1.702236    0.370035
N     -2.174173    1.047832   -1.029601
N      0.157468   -0.263483   -0.252908
O      6.412395    0.963384   -0.477373
O     -2.658280   -2.562875   -0.246701
O     -0.982116   -2.482972    1.197295
H     -3.548701    4.064567   -2.517799
H     -3.654749    5.085163   -0.923408
H      7.946434    2.246375    0.090897
H      6.836471    1.608286    1.424159
H      6.280045    2.862114    0.235077
H     -1.458715   -4.200881   -0.356412
H     -2.988279   -4.273603   -1.216916
H     -1.710108   -3.309991   -1.971994
H     -0.817697   -3.750566    2.727533
H     -2.006142   -2.480479    2.981811
H     -2.361414   -3.908215    1.857038
H     -3.499783    3.052791    0.351685
H      2.516755    0.994265    1.923720
H      2.873564   -1.685950   -1.438154
H      4.788659    1.775722    1.460465
H      5.157824   -0.854330   -1.848382
H     -1.021984    0.455658    2.011800
H     -2.617485    1.238061    1.962490
H     -3.482870   -0.459718    0.417394
H     -3.044496   -1.059128    2.012373
H     -3.345853    1.837648   -2.511213
H     -4.299481    1.140274   -1.169132
H      0.983485   -0.882166    1.613186
H      1.094863   -2.015307    0.249533
H      0.615334    1.624151    0.613902
H      0.169207    1.610738   -1.113678
H     -2.811746   -0.818296   -1.751508
H     -1.420981   -0.085144   -2.577594
H     -1.561900    2.474108    0.373783
H     -0.524568   -1.839592   -1.353558
