51

C     -4.152931    2.358360    2.245388
C      6.488760    0.738024    1.633030
C      4.355365   -2.155508   -1.897666
C     -4.952924    1.670222    1.461899
C     -2.828054   -1.304942   -1.836860
C     -2.772154    0.142635   -2.083577
C     -2.466845   -1.818810   -0.510169
C      1.703266    0.641997    0.960612
C      2.816466    1.144117    1.657763
C     -4.449846    0.776613    0.427964
C      4.212506   -0.220747    0.275548
C      0.681210   -0.838526   -0.755428
C     -2.285625   -0.072170    1.170744
C     -0.907553    1.006378   -0.807540
C      1.828591   -0.261213   -0.048530
C     -2.448358    1.010970   -0.914391
C     -1.487963   -1.068867    0.294249
C      4.066622    0.706840    1.308510
C      3.122699   -0.700884   -0.394521
N     -3.098425    0.599053    0.247886
N     -0.543200   -0.286104   -0.397039
O      5.182870    1.165362    1.958306
O      3.185851   -1.603860   -1.409853
H     -3.082543    2.271710    2.133345
H     -4.565195    3.032753    3.027153
H      6.507179   -0.384858    1.606910
H      7.174014    1.116843    2.426270
H      6.756349    1.157172    0.643945
H      4.462062   -1.909880   -2.991434
H      5.284466   -1.800696   -1.439026
H      4.354808   -3.271480   -1.822591
H     -6.039763    1.773710    1.595146
H     -3.877630   -1.662568   -2.074849
H     -2.201923   -1.817759   -2.628175
H     -3.749205    0.541195   -2.500450
H     -2.035299    0.405080   -2.903626
H     -2.050103   -2.863611   -0.645583
H     -3.384663   -1.998675    0.110049
H      0.738973    1.002388    1.291688
H      2.683215    1.852247    2.444186
H     -4.909772    1.014829   -0.578154
H     -4.915138   -0.240362    0.650755
H      5.225672   -0.537656    0.036189
H      0.749565   -1.953707   -0.572145
H      0.869479   -0.638871   -1.849984
H     -2.818640   -0.630202    1.968579
H     -1.554955    0.578823    1.687480
H     -0.634709    1.866759   -0.223955
H     -0.545735    1.160741   -1.859234
H     -2.698047    2.070397   -1.137595
H     -0.992790   -1.763264    1.018780
