55

C     -2.992830    3.417664   -1.638213
C      6.732597   -0.194755    0.296541
C     -1.401013   -4.143559    1.119170
C      3.485758    2.688924   -1.754285
C     -3.271199    3.336941   -0.370945
C      2.086228   -1.496389    0.222384
C     -3.853910   -0.470671    0.155071
C      3.391699   -1.755489    0.572112
C     -3.414803   -1.440119    1.155164
C     -2.865582    2.360861    0.628787
C      4.094015    0.318908   -0.405308
C      0.431333   -0.000686   -0.885428
C     -1.843423   -0.562847   -1.334960
C     -1.557558    0.500908    1.356251
C      1.758261   -0.348475   -0.434071
C     -2.814849    0.298306   -0.604786
C      4.375830   -0.853390    0.257990
C     -0.983290   -0.823880    0.877809
C     -2.003006   -1.903430    1.148671
C      2.781633    0.545811   -0.738603
N     -2.072405    1.257752    0.201495
N     -0.669546   -0.834663   -0.531121
O      5.715330   -1.098430    0.605954
O     -1.781354   -3.039106    0.386755
O      2.497302    1.739729   -1.414138
H     -3.400570    4.246887   -2.255864
H     -2.365272    2.750469   -2.199126
H      6.778492   -0.100443   -0.823655
H      6.446009    0.816666    0.662981
H      7.696226   -0.545756    0.665813
H     -1.225587   -5.039275    0.521053
H     -0.414945   -3.881968    1.585372
H     -2.076373   -4.341140    1.991416
H      4.396627    2.230676   -2.203475
H      3.052272    3.435970   -2.471423
H      3.795901    3.269951   -0.875058
H     -3.930303    4.146714    0.024515
H      1.376597   -2.274043    0.482293
H     -4.533803   -0.908472   -0.641431
H     -4.524540    0.284634    0.643556
H      3.660877   -2.687738    1.106823
H     -4.044492   -2.376005    1.009692
H     -3.737613   -1.118183    2.191572
H     -3.760378    2.072060    1.217469
H     -2.223869    2.922866    1.375843
H      4.895234    1.031043   -0.648826
H      0.453753    0.021749   -2.017092
H      0.134130    1.061360   -0.631267
H     -1.586809   -0.078347   -2.301759
H     -2.340494   -1.559641   -1.508466
H     -2.335219    0.336889    2.113795
H     -0.733661    1.117491    1.752358
H     -3.381427    0.886406   -1.363142
H     -0.102555   -0.981599    1.509993
H     -1.793423   -2.239141    2.213746
