64

C     -1.505248    3.663416    1.839225
C     -1.260637    2.271646    2.312883
C      7.888337    0.344294   -1.467490
C      7.436240   -0.902940   -1.879347
C      7.178830    1.077774   -0.534230
C      6.281430   -1.436165   -1.375070
C      6.024445    0.530243   -0.037784
C     -4.771187    1.544180   -0.466086
C     -6.466854   -0.202008   -0.258965
C     -3.417408    1.861680   -0.934640
C     -6.855194   -1.546096   -0.206617
C     -1.861222    1.190494    1.444218
C      0.398856   -0.535967    0.095903
C      2.524992    0.016041    0.879534
C      2.143063   -2.068966   -0.278986
C     -0.060927    0.875926   -0.120484
C      3.789296   -0.697782    1.298366
C      3.628743   -2.272901   -0.571219
C     -2.772896   -0.566136   -0.667441
C     -4.592156   -2.169530   -0.463905
C     -5.142327    0.141346   -0.414111
C     -4.205104   -0.831499   -0.516308
C      5.550631   -0.722198   -0.437941
C     -2.360120    0.837656   -0.908093
C     -5.912160   -2.522668   -0.310531
N      1.822026   -0.672246   -0.154360
N     -1.393783    1.195840    0.111445
N      4.369466   -1.225055    0.082530
O     -6.331958   -3.855568   -0.254847
H     -2.528306    4.024608    2.025191
H     -1.262664    3.820565    0.758847
H     -0.763988    4.315164    2.390001
H     -0.164148    2.103540    2.383271
H     -1.749471    2.184468    3.322233
H      8.794340    0.758788   -1.865660
H      7.981433   -1.493059   -2.614148
H      7.510139    2.056324   -0.195250
H      5.887909   -2.415997   -1.669276
H      5.464471    1.119235    0.697084
H     -5.553740    2.049081   -1.118911
H     -5.003400    1.990205    0.547452
H     -7.265007    0.527195   -0.173292
H     -3.510532    2.233636   -2.007303
H     -3.085900    2.800946   -0.399653
H     -7.900417   -1.812560   -0.083768
H     -2.962491    1.261482    1.513684
H     -1.584709    0.228190    1.929268
H     -0.173270   -1.177758   -0.631253
H      0.187500   -0.928739    1.082183
H      1.876961    0.095485    1.771446
H      2.751813    1.049528    0.542325
H      1.528913   -2.481771   -1.127116
H      1.884946   -2.612075    0.636447
H      0.208650    1.230119   -1.160643
H      0.576982    1.540441    0.532215
H      3.529973   -1.597457    1.924074
H      4.425962   -0.065214    1.897880
H      3.749738   -2.288765   -1.670008
H      3.953444   -3.247075   -0.178666
H     -2.418816   -1.193876   -1.521533
H     -2.303909   -0.972485    0.280126
H     -3.862567   -2.955241   -0.544982
H     -1.763159    0.894179   -1.872806
H     -6.583853   -4.363915   -1.094781
