89

C      4.899913   -1.656791   -3.397428
C     -7.479911    1.933337   -2.464956
C     -0.083203    4.933215    1.201045
C      6.983199   -2.337912    4.732922
C     -4.930519   -4.384744    2.388230
C      2.308267    0.192940   -1.644591
C      3.149593    1.370600    0.198619
C     -3.487410    3.455274   -0.707556
C      1.039896    0.212244   -1.156401
C      1.852897    1.396608    0.711678
C     -2.364358    3.923536   -0.074801
C      5.565506   -3.090600   -0.077741
C     -6.146182   -1.444041   -1.720749
C      5.880722   -2.841652   -1.541925
C     -6.764767   -0.305102   -2.447749
C      4.694182    0.697371   -1.633757
C     -4.872165    1.637217   -1.644581
C     -2.665947    1.254842   -0.551275
C      6.280443   -2.007426    1.998673
C     -5.512477   -2.234291    0.564083
C      6.307421    0.408241    0.832402
C     -5.386480    0.354519    1.443194
C      3.390979    0.755901   -1.007729
C     -3.664067    2.098962   -0.962357
C      5.930982   -1.881382    0.663987
C     -5.790943   -1.171482   -0.311531
C      0.783019    0.831021    0.060899
C      5.934939   -0.653517    0.038045
C     -5.727126    0.127655    0.131543
C      5.571661   -0.460835   -1.384842
C     -6.014688    1.244230   -0.780169
C      6.659818    0.317782    2.156634
C     -5.108782   -0.679972    2.318876
C     -1.352108    3.040364    0.337696
C      6.647291   -0.918629    2.758609
C     -5.172111   -1.999508    1.874068
C     -1.515039    1.708723    0.094119
N      5.194554   -1.681962   -2.026854
N     -7.116890    0.809429   -1.627527
O      7.028839    1.407909    2.923752
O     -4.763021   -0.478911    3.644434
O     -0.224893    3.533878    0.973457
O      6.992818   -1.085654    4.102255
O     -4.888710   -3.030149    2.769052
O     -0.524846    0.814253    0.493356
Cl     0.691221    0.000000    0.000000
H      5.211563   -0.721943   -3.883718
H      3.854228   -1.955217   -3.656924
H      5.539977   -2.450107   -3.897186
H     -8.569447    1.922217   -2.686177
H     -7.206187    2.883642   -1.916805
H     -6.848180    1.916608   -3.376019
H      0.839554    5.161381    1.763378
H     -0.038848    5.480730    0.225858
H     -0.933155    5.355923    1.770492
H      7.686162   -3.060767    4.241094
H      5.982273   -2.815112    4.778550
H      7.338311   -2.257919    5.795270
H     -3.969178   -4.717677    1.929802
H     -5.121026   -5.035854    3.291263
H     -5.794811   -4.605466    1.713444
H      2.453994   -0.312326   -2.614026
H      3.891377    1.853295    0.789372
H     -4.289354    4.125744   -1.037860
H      0.227988   -0.248834   -1.701719
H      1.681082    1.864863    1.670066
H     -2.228717    4.965609    0.124542
H      6.183996   -3.976797    0.203461
H      4.511110   -3.407554    0.051749
H     -6.835865   -2.341224   -1.721292
H     -5.222080   -1.833319   -2.209152
H      5.481884   -3.723210   -2.107145
H      6.965980   -2.781773   -1.712869
H     -6.155924    0.006932   -3.351465
H     -7.731318   -0.670581   -2.909280
H      5.251171    1.630847   -1.304456
H      4.636215    0.836427   -2.746620
H     -5.229827    2.492895   -2.289801
H     -4.588491    0.840798   -2.383273
H     -2.743676    0.196237   -0.716982
H      6.256616   -3.011404    2.450603
H     -5.560914   -3.256455    0.222006
H      6.328974    1.404162    0.390441
H     -5.317451    1.356335    1.858082
H      6.561884   -0.182747   -1.879312
H     -6.393460    2.150147   -0.225888
H      7.053256    2.339313    2.543938
H     -4.699980    0.466690    4.020448
H     -0.691221    0.000000    0.000000
