48

C      2.280717   -2.276628    0.890063
C      0.404262   -3.562262    2.123295
C     -1.907217    3.561482   -1.193656
C     -5.823721   -0.377020   -0.523832
C      1.896843    1.571418    1.012299
C      2.811759    2.510925    0.591284
C      2.115372    0.380351   -1.001793
C     -1.223824    1.037097   -0.170703
C     -3.154402   -0.911157    0.161848
C      4.862555    2.319495   -2.385108
C      0.919863   -1.926480    0.336101
C     -0.053913   -2.948261    0.792220
C      1.518818    0.488458    0.247025
C     -0.851145   -0.193528    0.335317
C     -1.816253   -1.157214    0.497836
C      3.402452    2.383893   -0.672246
C     -2.536097    1.303485   -0.509192
C     -3.496170    0.326805   -0.341020
C      3.045444    1.318038   -1.453257
C      0.533841   -0.515584    0.708656
C     -1.426065   -2.448742    1.030316
O     -2.247597   -3.138823    1.689020
O     -2.914825    2.553874   -1.023412
O     -4.810908    0.595047   -0.680557
O      4.339045    3.149011   -1.369072
O      3.778830    1.442361   -2.640704
H      2.588811   -3.262055    0.539469
H      2.208117   -2.199069    2.001812
H      2.986240   -1.465904    0.576894
H      1.369515   -4.066278    2.024951
H      0.392993   -2.737278    2.857888
H     -0.421071   -4.273980    2.409757
H     -1.291739    3.659620   -0.280583
H     -1.255725    3.236428   -2.029204
H     -2.369894    4.522005   -1.494780
H     -5.745654   -0.908810    0.466799
H     -6.832041    0.081975   -0.566836
H     -5.732380   -1.130667   -1.328614
H      1.460549    1.698068    1.989875
H      3.084793    3.347809    1.217955
H      1.896014   -0.416559   -1.674543
H     -0.470563    1.793025   -0.298988
H     -3.878902   -1.714481    0.313717
H      5.716789    1.769247   -1.939636
H      5.149620    2.887183   -3.291781
H      0.987887   -1.997328   -0.774156
H     -0.063173   -3.829157    0.083283
H      0.572151   -0.479836    1.837394
