80

C      4.609768   -2.638308    1.251043
C     -3.505015    2.427052   -1.157304
C      7.475763    1.984063   -0.315818
C     -6.860264   -2.661777   -0.227059
C      5.324591   -0.698250   -1.871982
C     -6.407664    0.129020   -0.414863
C      5.469091   -1.420074   -0.632935
C     -5.537371    1.305398   -0.539907
C      3.098854   -1.708817   -0.610490
C     -3.752141   -0.065485   -1.552737
C      2.360882   -0.479283   -0.767399
C     -2.561145   -0.520706   -0.714931
C      5.989046    0.670233   -1.897326
C     -6.340522   -0.517101    0.952576
C      1.034192    0.730214    1.955292
C     -1.285924    1.258764    1.627839
C      4.397577   -1.886774   -0.049425
C     -4.337864    1.177849   -1.062098
C      2.805152    0.625883    0.206413
C     -2.958002   -0.366859    0.715290
C      1.598056    1.382191    0.730883
C     -1.737205   -0.167547    1.632218
C      3.640282    1.678133   -0.437469
C     -3.466015   -1.629830    1.345634
C      5.012289    1.811200    0.128932
C     -4.582179   -2.320530    0.749790
C      2.199781    2.709557    1.022061
C     -2.395376   -0.533490    2.934452
C      6.135300    1.299286   -0.553786
C     -5.909828   -1.946446    0.752923
N     -0.132328    1.396834    2.488783
O      2.044630    3.414759    2.030463
O     -1.941572   -0.298261    4.076599
O      2.969413    2.923978   -0.139822
O     -3.602849   -1.182874    2.703248
O      5.686143    0.637605    0.579193
O     -5.551520   -2.730543    1.820724
H      5.219023   -2.078264    1.956763
H      3.640197   -2.859176    1.744027
H      5.053786   -3.651645    1.015140
H     -2.454864    2.180556   -1.387326
H     -3.970321    3.082749   -1.945226
H     -3.629795    2.976793   -0.201024
H      7.904509    2.297743   -1.289929
H      7.376581    2.900308    0.307206
H      8.208563    1.280507    0.131707
H     -6.337244   -2.642700   -1.229228
H     -7.851082   -2.206634   -0.250398
H     -6.971100   -3.723550    0.019530
H      4.386775   -0.724404   -2.403011
H      5.973867   -1.274370   -2.622001
H     -7.466849    0.524682   -0.516982
H     -6.333661   -0.603900   -1.232484
H      6.491653   -1.550017   -0.230185
H     -5.883054    2.288747   -0.199783
H      3.185533   -2.170999   -1.662306
H      2.357417   -2.491171   -0.198136
H     -3.311810    0.170977   -2.568117
H     -4.393396   -0.917853   -1.704262
H      2.194113   -0.072096   -1.780696
H      1.290166   -0.608684   -0.437623
H     -1.638172    0.017646   -0.972492
H     -2.410407   -1.614479   -0.917169
H      6.962133    0.679036   -2.431461
H      5.329862    1.317817   -2.512287
H     -7.368885   -0.591620    1.422828
H     -5.750041    0.041496    1.671681
H      1.830351    0.775852    2.749349
H      0.878725   -0.337928    1.748805
H     -2.093291    1.871685    2.081440
H     -1.033492    1.563183    0.621976
H      3.350842    0.110725    1.011208
H     -3.556428    0.523106    0.840802
H      0.848303    1.503465   -0.047858
H     -1.011474   -0.907326    1.312022
H      3.587296    1.656693   -1.552803
H     -2.553230   -2.300289    1.415433
H      5.185549    2.620509    0.902646
H     -4.286122   -3.240461    0.148772
H      0.063451    2.394229    2.727955
