42

C     -1.712377   -3.334416    0.467600
C      5.319372   -1.825573    0.154368
C      3.410248    1.290782    0.158373
C      2.076508    1.715171    0.096199
C     -3.582114   -0.472165   -0.406157
C     -3.252010   -1.498782    0.625436
C      2.692762   -0.989121    0.032835
C      0.343090   -1.663634   -0.102885
C     -2.927609    1.942158   -0.227218
C     -0.805755    4.867685   -0.073273
C     -2.613302    0.629269   -0.279735
C      1.339812   -0.578964   -0.030488
C      3.670633   -0.047872    0.124195
C      1.089903    0.774792    0.003984
C     -1.025195   -1.188141   -0.298966
C     -1.942036    2.909821   -0.106117
C     -1.261985    0.268785   -0.208598
C     -0.295891    1.230133   -0.088449
C     -0.579980    2.577066   -0.032227
N     -1.899147   -1.923424    0.606279
O      5.007401   -0.449512    0.186927
O     -2.096244    4.283607   -0.039815
O      0.043085    3.780540    0.077756
H     -2.622423   -3.788448    0.011629
H     -0.835622   -3.541697   -0.177985
H     -1.499827   -3.808038    1.458592
H      4.851743   -2.292635    1.043688
H      6.414722   -1.962759    0.141019
H      4.940644   -2.317863   -0.776808
H      4.148943    2.067318    0.230123
H      1.851605    2.758328    0.120929
H     -3.576357   -0.905279   -1.425718
H     -4.630759   -0.122713   -0.198640
H     -3.444544   -1.030449    1.627874
H     -3.892164   -2.413956    0.510272
H      2.901518   -2.039724    0.006167
H      0.404652   -2.283604    0.842071
H      0.655655   -2.298592   -0.973910
H     -3.989153    2.223812   -0.283215
H     -0.731633    5.600237    0.779663
H     -0.590956    5.348421   -1.049799
H     -1.355214   -1.490564   -1.334070
