52

C     -5.921289   -1.678850    0.230133
C     -5.142693    3.209235    2.699872
C      6.528718   -0.547923   -1.613842
C      3.191879   -3.069421   -3.583889
C      2.681509    0.466715    1.781530
C      1.412828    1.226601    1.987511
C     -0.895967   -0.387657   -0.456910
C      3.958779   -0.239674   -0.245120
C     -3.337438   -0.436199    0.199117
C     -2.980107    2.008333    1.443180
C     -0.540245    1.948200    0.745930
C      2.738168   -0.103323    0.379418
C     -2.110665    0.187032    0.203005
C     -1.929010    1.419053    0.829734
C      0.311906   -0.317262    0.450519
C     -4.425340    0.161872    0.827537
C     -4.232712    1.378957    1.442932
C      4.073054   -0.751865   -1.511144
C      1.592342   -0.484562   -0.265779
C      1.669832   -1.015862   -1.568023
C      2.939879   -1.140787   -2.176896
N      0.317119    0.884934    1.183602
O      0.632623   -1.401841   -2.248523
O     -5.680726   -0.426135    0.850999
O     -5.322476    1.959273    2.062268
O      5.297054   -0.896145   -2.157352
O      3.034847   -1.666216   -3.469792
H     -5.099910   -2.388350    0.425043
H     -6.120235   -1.566789   -0.857410
H     -6.844935   -2.114815    0.665248
H     -4.486416    3.072893    3.601834
H     -6.123482    3.591872    3.086438
H     -4.674260    3.918276    1.987351
H      6.995020   -1.477791   -1.200279
H      6.475456    0.259385   -0.866552
H      7.205228   -0.246332   -2.463682
H      2.156935   -3.510449   -3.495743
H      3.837267   -3.415712   -2.757731
H      3.619190   -3.276031   -4.570386
H      2.723473   -0.370881    2.507821
H      3.590405    1.071162    1.902722
H      1.097085    1.226995    3.063124
H      1.674176    2.309573    1.777709
H     -1.128852   -1.459680   -0.608518
H     -0.769476    0.190868   -1.380140
H      4.833833    0.071316    0.296772
H     -3.470749   -1.387427   -0.286505
H     -2.835518    2.955846    1.923001
H     -0.328091    2.292077   -0.286561
H     -0.396609    2.793903    1.450501
H      0.271193   -1.158416    1.190882
H     -0.062595   -1.667975   -2.722556
