42

C     -2.670239    2.967273    0.106473
C      5.872259    1.349640    0.215066
C      3.500832   -0.088494    0.240724
C      2.296347   -0.803433    0.250107
C     -3.826165   -0.459326   -0.580133
C     -3.726158    1.024326   -0.832447
C      2.221877    1.866410   -0.256561
C     -0.244764    1.899591   -0.470776
C     -2.509670   -2.416432    0.020532
C      0.372241   -4.596523    0.536813
C     -2.526196   -1.084621   -0.285300
C      1.009631    1.140593   -0.245068
C      3.420699    1.255651   -0.019156
C      1.062551   -0.213942    0.012383
C     -1.420885    1.065611   -0.688741
C     -1.325579   -3.069354    0.313087
C     -1.322487   -0.362778   -0.304243
C     -0.172238   -1.027881   -0.011209
C     -0.124799   -2.365725    0.299097
N     -2.635061    1.541330   -0.043851
O      4.632099    1.970323   -0.028600
O     -1.028400   -4.390207    0.649652
O      0.843614   -3.288364    0.627230
H     -3.743313    3.287464   -0.025726
H     -2.410177    3.213351    1.161650
H     -2.006904    3.521872   -0.551441
H      6.168946    0.659864   -0.621514
H      5.843409    0.691319    1.127636
H      6.641656    2.102604    0.417840
H      4.428756   -0.601836    0.432593
H      2.332589   -1.845206    0.447181
H     -4.345944   -0.985102   -1.419091
H     -4.524327   -0.574039    0.299458
H     -4.692639    1.515893   -0.606099
H     -3.529827    1.149577   -1.922145
H      2.190216    2.917512   -0.456630
H     -0.415665    2.631348    0.364985
H     -0.028691    2.522987   -1.390685
H     -3.431399   -2.980943    0.037536
H      0.660055   -5.010372   -0.445721
H      0.782118   -5.168335    1.395229
H     -1.618368    1.038372   -1.811934
