80

C      4.307385    2.080754    1.972933
C     -5.253787   -2.786947    2.174953
C      6.132845   -3.005465    0.739432
C     -7.523931    0.848011   -1.867604
C      7.433996    0.220005    0.828260
C     -7.171452    0.460525    1.269456
C      6.278017    0.769389    1.571549
C     -6.685269   -0.875161    1.539571
C      5.442811    2.198799   -0.297846
C     -4.326370   -0.449237    2.309636
C      4.114367    2.089468   -1.000858
C     -3.163334   -0.658188    1.408939
C      7.100676   -0.845572   -0.156076
C     -6.399567    1.340331    0.344515
C      1.030600    0.866665   -1.048622
C     -1.370271    0.995481   -1.384994
C      5.409757    1.638145    1.073949
C     -5.513688   -1.299900    1.970121
C      3.534748    0.707586   -0.965032
C     -3.184766    0.106343    0.102318
C      2.301415    0.650910   -1.840897
C     -1.774098   -0.131906   -0.478403
C      4.500778   -0.321581   -1.563972
C     -4.096103   -0.581665   -0.827336
C      4.715753   -1.484634   -0.662407
C     -5.120460    0.196907   -1.553042
C      2.420545   -0.721420   -2.392899
C     -1.977555   -1.408501   -1.167672
C      5.865102   -1.618457    0.129877
C     -6.223380    0.797010   -1.023943
N     -0.074621    0.801362   -1.935812
O      1.508646   -1.593230   -2.551100
O     -1.170680   -2.366097   -1.213694
O      3.787581   -0.839116   -2.704836
O     -3.233990   -1.311199   -1.739056
O      4.779073   -1.018009    0.766212
O     -5.130382    1.561307   -1.683642
H      4.661955    3.026110    2.479051
H      3.395733    2.344430    1.436491
H      4.064433    1.310292    2.739752
H     -4.806049   -3.234761    1.264471
H     -6.219329   -3.293245    2.438599
H     -4.563349   -2.963810    2.994345
H      6.612919   -3.605219   -0.035615
H      5.163420   -3.486186    0.991848
H      6.780732   -2.902243    1.640979
H     -8.011879    1.812301   -1.615758
H     -8.106736   -0.019322   -1.564151
H     -7.229799    0.822788   -2.951974
H      8.199046   -0.173979    1.534663
H      7.970621    1.043303    0.281034
H     -8.241301    0.496728    0.906322
H     -7.243686    1.012849    2.255523
H      6.162550    0.408172    2.604826
H     -7.411577   -1.701596    1.358811
H      5.654593    3.304618   -0.195921
H      6.279607    1.809079   -0.910854
H     -4.572863    0.577104    2.563896
H     -3.944283   -0.838110    3.318250
H      3.361295    2.774661   -0.562042
H      4.254177    2.402740   -2.054768
H     -3.146531   -1.755327    1.142806
H     -2.184629   -0.493447    1.946293
H      7.134371   -0.415883   -1.181536
H      7.969511   -1.569956   -0.167141
H     -7.036393    2.286683    0.164895
H     -5.505051    1.813767    0.791534
H      0.982675    0.224073   -0.167159
H      1.104647    1.922166   -0.657160
H     -2.078731    1.127648   -2.242772
H     -1.427956    1.926953   -0.804148
H      3.267028    0.347969    0.024079
H     -3.338325    1.190626    0.253870
H      2.376095    1.342287   -2.696526
H     -1.068453   -0.148550    0.359877
H      5.384008    0.150721   -1.987675
H     -4.630966   -1.444568   -0.320936
H      3.984976   -2.348009   -0.707150
H     -5.276903   -0.272465   -2.596984
H      0.010004    0.175895   -2.736813
