74

C      4.768076    2.155601    0.234635
C     -4.848679    3.507381   -1.353035
C      7.326725   -0.954104    2.626714
C      4.847036   -1.480946   -0.877349
C     -4.416934   -0.282966   -0.638081
C      1.216345   -2.871261   -0.834548
C      4.997262    0.937222   -0.617227
C     -4.909078    2.694608    0.918108
C     -2.713057    1.695203   -1.861233
C     -1.959019   -1.666743   -1.924961
C     -4.315567    2.651350   -0.260884
C      6.613241   -0.699642    1.328670
C     -3.158343    1.761001   -0.418337
C     -4.359567    1.843520    1.959184
C     -1.539128    0.821050   -2.053534
C     -1.898843   -1.548809    0.917812
C      0.794926    0.143375   -0.310127
C     -2.006163   -0.285908    0.146399
C      0.019597   -0.763161   -1.160306
C     -3.862242    0.503703    1.586441
C     -0.742746   -2.408164    0.573799
C      0.413047    1.549204   -0.721290
C      3.095564   -0.208602    0.353401
C      4.564836   -0.341652    0.079355
C     -3.348022    0.384309    0.188349
C     -0.107569   -2.183641   -0.756456
C     -1.477603   -0.415137   -1.253839
O      7.272848   -0.594176    0.263249
O     -4.312424    2.242674    3.142950
O     -3.048874   -2.339274    0.900165
O     -4.948592   -0.380282    1.801388
O      0.290554   -2.305181    1.536757
O      0.784882    2.550410   -0.056633
O      2.662659   -0.313050    1.528722
O     -0.933663   -2.636606   -1.814392
O     -0.362419    1.624787   -1.866171
O      2.166751    0.029111   -0.643293
O      5.247714   -0.577595    1.270979
H      4.315197    1.903202    1.212201
H      5.753341    2.665621    0.356085
H      4.083440    2.896714   -0.237357
H     -4.125856    4.339561   -1.491392
H     -5.865430    3.859641   -1.089640
H     -4.977540    2.935961   -2.310057
H      7.481245   -0.006638    3.165056
H      8.292646   -1.428041    2.389767
H      6.715232   -1.684816    3.202657
H      5.049605   -2.420473   -0.333797
H      5.794312   -1.230234   -1.429832
H      4.061821   -1.576472   -1.653966
H     -4.740810   -1.266467   -0.277476
H     -4.231152   -0.244497   -1.727452
H     -5.329256    0.378192   -0.500001
H      1.093095   -3.964088   -1.078869
H      1.790276   -2.783161    0.085618
H      1.832121   -2.459543   -1.672169
H      4.310698    1.047448   -1.507039
H      6.010054    0.877562   -1.038792
H     -5.772765    3.343457    1.102825
H     -2.425526    2.757738   -2.126326
H     -3.568044    1.485974   -2.562158
H     -2.135516   -1.523435   -3.012702
H     -2.822342   -2.148122   -1.416429
H     -2.306754    2.224778    0.144756
H     -1.480223    0.521255   -3.142782
H     -1.777849   -1.272124    2.010530
H      0.676813    0.012031    0.774196
H     -1.309110    0.454810    0.651664
H      0.389891   -0.718723   -2.199107
H     -3.118584    0.216891    2.357257
H     -1.018803   -3.504986    0.609778
H     -3.304164   -2.690514    1.771007
H     -5.078208   -0.587554    2.739827
H     -0.075382   -2.248556    2.443062
