27

C     -0.090204    0.744858   -0.748327
C      2.205900   -0.023232   -0.574822
C      0.777694   -0.066104   -0.177204
C     -1.506601    0.696073   -0.346676
C      0.322751   -1.003040    0.838595
C     -1.991343   -0.624711    0.139895
C     -1.054849   -1.552412    0.691657
O      2.998575    0.294668    0.539395
O     -1.735069    1.684600    0.611806
O      1.087101   -1.304208    1.773495
O     -1.979151   -0.847726    1.553497
C     -0.980591   -0.087667    0.050863
C      0.445263    0.269948   -0.119262
O      0.781905    1.484840   -0.111346
O      1.452278   -0.659873   -0.289704
H      0.247379    1.445081   -1.513527
H      2.527364   -0.982077   -1.027874
H      2.340934    0.800044   -1.293393
H     -2.112177    1.012540   -1.240388
H     -2.938600   -1.005188   -0.294592
H     -1.189128   -2.629045    0.601795
H      3.806012    0.795204    0.304785
H     -1.716589    2.564676    0.161883
H     -1.190455   -0.395859    1.093483
H     -1.259539   -0.962013   -0.590628
H     -1.611994    0.803468   -0.183890
H      2.363134   -0.452844    0.150484
