74

C      5.051269   -0.317637   -2.980579
C     -4.056659    2.286366    3.375100
C      5.975270   -0.424980    1.524044
C      4.525251    3.079214   -1.288811
C     -3.945726   -1.373634    1.250565
C      1.556126   -2.127504   -1.659999
C      5.027628    1.096698   -2.579786
C     -5.328179    1.563413    1.458698
C     -2.107609    0.384194    2.627515
C     -0.800552   -2.441392    0.908740
C     -4.169981    1.569698    2.085578
C      5.137820   -0.150709    0.282220
C     -3.008400    0.892607    1.541973
C     -5.496530    0.863982    0.169466
C     -0.842401   -0.234095    2.110759
C     -2.134365   -1.376171   -1.310195
C      0.806797    0.608033   -0.271352
C     -1.993135   -0.494570   -0.106392
C      0.436589   -0.742774    0.103668
C     -4.319949    0.235230   -0.485517
C     -0.768487   -1.472405   -1.975059
C      0.312506    1.518099    0.841565
C      2.890495    1.301181   -1.288764
C      4.334552    1.502163   -1.328593
C     -3.314595   -0.206714    0.568162
C      0.274234   -1.768311   -0.956922
C     -0.912874   -0.913050    0.818751
O      4.551226   -1.115619   -0.264151
O     -6.655469    0.831143   -0.327903
O     -2.577856   -2.646910   -1.068536
O     -4.829428   -0.968017   -1.035443
O     -0.504381   -0.423600   -2.818343
O      0.126068    2.740543    0.658408
O      2.212071    1.648228   -2.287126
O     -0.170724   -2.882779   -0.220896
O      0.101161    0.855133    2.041601
O      2.218299    0.752165   -0.215848
O      5.045722    1.106908   -0.197506
H      5.268204   -0.384940   -4.112439
H      4.142871   -0.904387   -2.871564
H      5.902516   -0.918735   -2.550116
H     -3.249543    3.055486    3.239787
H     -3.686355    1.613026    4.173440
H     -4.982224    2.815276    3.658604
H      5.325958   -1.005394    2.213604
H      6.331731    0.514190    1.946738
H      6.782442   -1.099136    1.186227
H      4.370813    3.394539   -0.248439
H      3.811891    3.513129   -1.987166
H      5.588031    3.205148   -1.538747
H     -3.488281   -1.714973    2.173756
H     -4.970242   -1.001566    1.566981
H     -4.188547   -2.186156    0.536481
H      2.318365   -2.532338   -0.968695
H      1.342774   -2.933769   -2.399478
H      1.874115   -1.240073   -2.228966
H      4.594408    1.699436   -3.444829
H      6.106029    1.456484   -2.580055
H     -6.160456    2.085942    1.912258
H     -2.678363   -0.266394    3.319420
H     -1.869159    1.291796    3.264043
H     -1.721535   -2.943769    1.163583
H     -0.090010   -2.614195    1.769737
H     -2.407228    1.659017    0.969000
H     -0.450301   -0.913181    2.889448
H     -2.762930   -0.836866   -2.079463
H      0.465050    0.983328   -1.241455
H     -1.673843    0.512685   -0.520741
H      1.185537   -1.145302    0.839611
H     -3.892572    0.885584   -1.245522
H     -0.832076   -2.386577   -2.640361
H     -2.040325   -3.327278   -1.571065
H     -5.632578   -1.271773   -0.584353
H     -1.279947    0.187610   -2.800059
