40

C      3.414823    1.539647   -0.706036
C      4.076108   -1.815226    0.222462
C     -4.018221    1.282234    0.422556
C      4.275959   -0.745851   -0.760586
C     -2.637914    1.823358    0.582261
C      2.924425   -2.046526    0.790429
C     -1.810876   -1.334356    1.192791
C     -3.905638    0.358730   -0.771488
C     -2.325754   -1.369639   -0.225447
C      3.103842    0.087050   -1.099956
C     -1.729642    0.975648   -0.280252
C      1.748512   -1.253100    0.485698
C     -0.505762   -0.571100    1.281403
C      1.857308   -0.273831   -0.390330
C     -0.449231    0.602499    0.371398
C      0.628747    0.488206   -0.650455
N     -2.530082   -0.092551   -0.795480
O      0.452856    1.068222   -1.749297
O      0.518633   -1.500369    1.091700
H      3.335242    1.551080    0.419423
H      4.435293    1.747954   -1.032957
H      2.658789    2.211888   -1.122263
H      4.944590   -2.448701    0.488439
H     -4.343430    0.693856    1.305973
H     -4.774569    2.084824    0.239794
H      4.719130   -1.143361   -1.721716
H      5.126445   -0.112544   -0.349381
H     -2.295510    1.856612    1.637252
H     -2.662210    2.895232    0.251090
H      2.809243   -2.860208    1.526458
H     -1.696770   -2.386117    1.528491
H     -2.607276   -0.883254    1.820031
H     -4.628260   -0.477160   -0.697235
H     -4.056813    0.984743   -1.678215
H     -3.293145   -1.923105   -0.202532
H     -1.599916   -1.967893   -0.821464
H      2.882277    0.063514   -2.194827
H     -1.465195    1.623797   -1.169235
H     -0.435620   -0.233342    2.343209
H     -0.140388    1.499141    0.989508
