75

C     -4.348625   -1.053742   -2.342394
C     -2.077078   -2.366497   -0.739369
C      0.597112    0.658697    1.144292
C     -2.390653    0.341563   -2.532667
C     -5.600957   -0.012790    0.419400
C     -4.342208   -0.784222    0.599532
C     -0.974403   -0.043280   -2.136409
C     -0.279065   -2.055230    1.484472
C     -5.608191    2.470492   -0.031507
C     -1.579378   -1.340837    1.401781
C     -5.328138    3.732813    0.710960
C      4.752168    1.509824    1.772459
C      1.531320    0.210282   -1.033773
C     -3.402947   -0.392418   -1.710734
C     -5.428771    1.432475    0.761072
C     -3.231156   -0.323111   -0.225375
C      5.212707    0.159189    1.207137
C     -0.897826   -0.118320   -0.641920
C      0.752103   -1.645594    0.435763
C      6.284803    0.384155    0.163031
C      5.691330    0.544622   -1.216020
C      4.817485   -0.629453   -1.465827
C     -5.025404    1.962923    2.051440
C      3.690443   -0.656577   -0.398427
C     -1.903294   -1.052247   -0.017235
C      0.510094   -0.275547   -0.085485
O      3.989834    2.231070    0.898432
O      0.856073   -2.625936   -0.551104
O      7.098184   -0.747611    0.144686
O      5.111807    1.766930   -1.438012
O      5.545014   -1.789253   -1.284948
O     -4.746760    1.319876    3.116039
O     -4.969228    3.350695    2.005682
O      2.788396    0.253192   -0.662982
O      4.221310   -0.687511    0.876439
H     -4.355654   -1.037772   -3.425690
H     -5.137948   -1.643653   -1.897571
H     -3.169897   -2.620894   -0.897915
H     -1.741121   -3.250468   -0.119343
H     -1.611171   -2.436367   -1.714334
H     -0.324543    1.273838    1.195689
H      1.429607    1.355666    1.080698
H      0.646074    0.096098    2.087973
H     -2.595132    1.418104   -2.405827
H     -2.505527    0.101163   -3.602484
H     -6.342408   -0.472782    1.147310
H     -6.095197   -0.054864   -0.541250
H     -4.599252   -1.860304    0.504374
H     -4.038172   -0.621719    1.677896
H     -0.614487   -0.926148   -2.663449
H     -0.339226    0.810662   -2.456972
H      0.109441   -1.902619    2.513334
H     -0.376912   -3.177042    1.390751
H     -5.913992    2.480617   -1.080527
H     -2.362240   -2.079508    1.757023
H     -1.679671   -0.478494    2.093578
H     -6.290244    4.306674    0.738117
H     -4.596538    4.367086    0.196878
H      4.285947    1.335732    2.762439
H      5.696793    2.079031    1.981453
H      1.244658    1.314458   -1.284618
H      1.399380   -0.328069   -2.055168
H     -3.000080    0.736798    0.080375
H      5.766075   -0.309380    2.079905
H     -1.201484    0.930367   -0.325321
H      1.706549   -1.646751    0.997374
H      6.870263    1.273008    0.460894
H      6.562141    0.465342   -1.931215
H      4.291197   -0.589034   -2.430488
H      3.295533   -1.705229   -0.558231
H      4.077165    3.200674    1.141698
H      1.444988   -3.366712   -0.275317
H      7.884009   -0.665678   -0.419134
H      5.732005    2.478535   -1.216071
H      5.132969   -2.578992   -1.711652
