91

C      2.127799    4.488334    3.804687
C      3.493632    3.376053    1.971890
C     -5.354138   -0.234572   -1.063707
C     -6.167525   -0.736028    1.311704
C      5.044315    2.276096   -1.239716
C      5.330489    0.113590    0.020569
C      2.333884    2.939379   -3.506338
C      4.401768    1.930442   -4.168895
C     -0.750119   -0.379298    2.397782
C     -1.363960    1.953902    1.910655
C      1.457056    2.277966    2.875961
C     -3.364726   -3.766174   -0.472428
C      1.672289    1.149007    1.957654
C     -4.207510   -4.574080    0.303004
C     -3.942121    0.274267    0.892025
C     -2.936274    0.769883   -0.033477
C      3.645323    0.283895   -1.670442
C     -1.557051   -5.228052   -0.085575
C      1.314368    0.947698   -2.199705
C      1.067237   -0.208860   -0.017591
C      2.326439    3.320681    2.874040
C     -5.130609   -0.222221    0.392566
C      4.584563    0.896587   -1.064119
C      3.087948    1.878842   -3.434718
C     -2.062937   -4.062685   -0.676425
C      2.688059    0.618617   -2.712961
C      0.632577    0.979181    0.906648
C     -3.728370   -5.706271    0.882973
C     -2.364558   -6.026013    0.671212
C     -0.930141   -1.939490   -1.186779
C     -1.159289   -3.214524   -1.433694
C      0.009202   -1.179063   -2.024168
C     -1.532500   -1.228950   -0.065944
C     -0.797030    0.815196   -1.119088
C     -0.769990    0.703867    1.328570
C      0.507053    0.081505   -1.377578
C     -1.547118    0.254515    0.087839
O     -4.494759   -6.559958    1.665639
O     -1.915702   -7.190271    1.285532
O     -0.445207   -3.759395   -2.525902
O      0.366584   -1.511011   -3.135998
O     -2.072227   -1.956936    0.839838
O     -1.198792    1.727302   -1.773464
H      1.359201    5.177396    3.397294
H      1.749841    4.168483    4.791748
H      3.058701    5.047390    3.942666
H      4.312308    2.725793    2.347102
H      3.877830    4.440608    1.900354
H      3.166426    3.142608    0.940389
H     -6.445064   -0.441150   -1.250300
H     -5.228014    0.825221   -1.473040
H     -4.701551   -0.890595   -1.629872
H     -6.958199   -1.291291    0.800929
H     -6.571038    0.118584    1.928629
H     -5.668697   -1.390758    2.091923
H      5.944049    2.405823   -1.884346
H      4.278860    3.011888   -1.531986
H      5.398238    2.672719   -0.218585
H      5.860218    0.795331    0.701814
H      6.025160   -0.593592   -0.418785
H      4.582129   -0.470356    0.618084
H      2.738742    3.788364   -4.105896
H      1.370045    3.145098   -3.092266
H      5.053003    1.145756   -3.815038
H      4.882618    2.916150   -4.019895
H      4.138796    1.756974   -5.235291
H     -0.166107   -0.012638    3.297079
H     -0.242534   -1.299349    2.103550
H     -1.777763   -0.511092    2.783619
H     -1.430468    1.788268    3.027797
H     -0.724318    2.824588    1.755798
H     -2.425763    2.137800    1.638516
H      0.675672    2.384872    3.605081
H     -3.854420   -2.898522   -0.897077
H      2.655161    1.271025    1.463712
H      1.752046    0.234777    2.616193
H     -5.249748   -4.293984    0.448877
H     -3.851903    0.261032    1.945044
H     -3.262549    0.422265   -1.091051
H     -3.031349    1.866740   -0.144026
H      3.611816   -0.845110   -1.353108
H     -0.527440   -5.513195   -0.217797
H      1.442067    1.921323   -1.608065
H      0.724560    1.261849   -3.107924
H      0.733752   -1.164367    0.395254
H      2.153941   -0.172875    0.085525
H      2.600340   -0.168317   -3.460305
H      0.634894    1.858712    0.239571
H     -5.460876   -6.354712    1.836494
H     -2.511059   -7.761714    1.858478
H     -0.989488   -3.816772   -3.398945
