63

C      9.298079   -0.848497   -1.180873
C     -8.481810   -1.076115   -1.022051
C      1.247959    2.316550    1.049571
C     -0.020007    1.621890    0.580410
C      2.263488    2.284903   -0.044482
C     -1.046869    1.660803    1.677379
C      2.652099    0.901843   -0.486453
C     -2.335984    0.983368    1.291787
C      3.228772    0.150314    0.676244
C     -2.944803    1.661198    0.088162
C      3.642844   -1.210089    0.264432
C     -4.235237    0.984231   -0.272865
C      4.657179   -1.293033   -0.786145
C     -4.088758   -0.478053   -0.620427
C      7.097865   -1.505599   -0.384540
C      8.262482   -0.683051   -0.061429
C     -7.507586   -1.814007   -0.127851
C      5.977103   -0.726170   -0.472431
C     -5.481436   -0.974847   -0.960394
C     -6.419279   -0.795925    0.237253
C      6.428156    0.627498   -0.283120
C     -5.535046   -2.433487   -1.154479
O     -5.763101   -1.224338    1.403291
O      5.721211    1.700639   -0.293133
O     -4.650475   -3.244580   -1.532236
O      7.813055    0.633165   -0.080078
O     -6.825886   -2.829844   -0.830589
H      9.210911   -0.027316   -1.895908
H     10.293105   -0.807548   -0.729651
H      9.129293   -1.810975   -1.716601
H     -9.341499   -0.655331   -0.461545
H     -8.847204   -1.698438   -1.861013
H     -7.987278   -0.183606   -1.502481
H      0.954333    3.384333    1.220184
H      1.590477    1.834987    1.970316
H      0.166983    0.541881    0.349072
H     -0.313118    2.114498   -0.352558
H      3.201964    2.746763    0.385207
H      1.882221    2.905037   -0.884600
H     -1.285255    2.726132    1.884057
H     -0.606810    1.191083    2.566222
H      1.765761    0.316706   -0.845237
H      3.337080    1.005977   -1.351568
H     -3.010813    1.012122    2.169946
H     -2.114733   -0.100957    1.073116
H      2.352726    0.053130    1.435298
H      4.001682    0.653149    1.238594
H     -2.235071    1.691419   -0.757242
H     -3.190587    2.720315    0.310083
H      2.704216   -1.774166   -0.078986
H      4.040552   -1.789464    1.154323
H     -4.958668    1.041484    0.564818
H     -4.654125    1.472860   -1.198727
H      4.323023   -0.780355   -1.751595
H      4.743493   -2.378790   -1.092859
H     -3.439231   -0.669365   -1.476394
H     -3.709053   -1.023355    0.269411
H      7.086802   -2.570483   -0.537321
H      8.727795   -0.971457    0.906351
H     -7.993520   -2.210503    0.787181
H     -5.879228   -0.419798   -1.814328
H     -6.808150    0.219061    0.310121
H     -6.092092   -2.147797    1.633014
