29

C     -3.785385   -2.374041    0.019717
C      5.260387    0.057546   -0.398831
C     -1.507672   -1.477470    0.074335
C      0.699233   -0.392675    0.246303
C      1.037066    1.948996   -0.071497
C     -2.960639   -1.129418    0.304527
C      3.791871    0.251895   -0.591376
C     -0.656144   -0.267660    0.014616
C      1.545603    0.696582    0.206228
C     -0.319897    2.063385   -0.301771
C     -1.174454    0.962637   -0.261180
C     -2.600861    1.096798   -0.506727
O      3.309232    0.167961   -1.749794
O     -0.922030    3.286141   -0.589435
O     -3.050606    2.245736   -0.758758
O     -3.382195   -0.033953   -0.451216
O      2.922806    0.522714    0.449059
H     -3.490034   -3.137055    0.766331
H     -3.548957   -2.767988   -0.996832
H     -4.871639   -2.185794    0.160975
H      5.840628    0.812722   -0.945107
H      5.521297    0.066588    0.665217
H      5.544116   -0.948179   -0.806755
H     -1.402301   -2.083424   -0.857494
H     -1.127135   -2.115968    0.898044
H      1.146768   -1.352449    0.468173
H      1.666891    2.819587   -0.110790
H     -3.092281   -0.890703    1.374059
H     -0.393670    4.157489   -0.644716
