61

C     -1.794374    5.284567   -2.324363
C      6.798986   -2.669447   -0.397538
C     -1.194228    5.061682   -1.162991
C     -4.846854   -5.020212    1.078271
C     -4.974801   -4.406471   -0.140288
C     -3.707822   -4.724081    1.827722
C     -4.021430   -3.536345   -0.603967
C     -2.757930   -3.850994    1.354927
C      3.024190   -1.167971    0.989495
C      3.912722    1.012337    0.915015
C     -0.975316    1.737181   -1.967177
C      4.226202   -1.690721    0.543389
C      5.126045    0.493809    0.465590
C     -2.044117    0.901421   -1.310284
C     -1.775033    4.121871   -0.169960
C      1.545292    0.683274    1.659508
C      1.027431    1.773217   -0.449785
C     -1.319166    2.097662    1.046543
C     -1.850399   -2.282811   -0.385104
C      2.855794    0.179950    1.178716
C     -2.876907   -3.228238    0.130580
C     -0.158110    2.529497   -1.010939
C      5.299163   -0.855856    0.274571
C     -0.734388    0.728983    0.825692
C     -1.353790   -0.015331   -0.326288
N     -0.874901    3.064475    0.104142
N      0.668640    0.862857    0.573158
O      6.524220   -1.300626   -0.171491
O     -2.200699   -1.025491    0.055893
H     -1.403118    5.960842   -3.072273
H     -2.715984    4.770989   -2.540473
H      6.930151   -3.217120    0.565130
H      5.912365   -3.134107   -0.887759
H      7.709543   -2.767651   -1.049390
H     -0.268549    5.594816   -0.976751
H     -5.578234   -5.713609    1.479132
H     -5.838449   -4.613980   -0.738387
H     -3.629087   -5.220750    2.786298
H     -4.095379   -3.034321   -1.567312
H     -1.900600   -3.657935    1.971265
H      2.217764   -1.890254    1.182261
H      3.777174    2.073736    1.066312
H     -0.315513    1.051046   -2.529168
H     -1.458431    2.416845   -2.691185
H      4.372484   -2.747954    0.390626
H      5.923549    1.208044    0.275273
H     -2.471187    0.231616   -2.102177
H     -2.867817    1.465799   -0.891935
H     -2.784389    3.829816   -0.485777
H     -1.897334    4.719698    0.779681
H      1.684206    1.571356    2.308130
H      1.122575   -0.111114    2.318691
H      1.589735    1.310207   -1.277015
H      1.686548    2.564746    0.014644
H     -2.425348    2.069652    1.174711
H     -0.938343    2.428431    2.059962
H     -0.844109   -2.608090   -0.116242
H     -1.914949   -2.364380   -1.508982
H      0.272896    3.401715   -1.576693
H     -0.850078    0.179670    1.790505
H     -0.550511   -0.525945   -0.940133
