59

C      2.899699   -4.854917    0.931053
C     -7.398031    1.306789    0.979824
C      6.424859    3.682466    0.200905
C      1.614019   -4.683543    0.646521
C     -2.883862    1.911857   -0.802875
C     -3.929050   -0.192291   -1.075087
C     -4.039104    2.342792   -0.142344
C     -5.063728    0.246109   -0.421130
C      3.671628    3.346459    0.458197
C      2.292775    3.230688    0.598757
C      0.774268   -3.686599    1.320564
C      2.091864   -1.566622   -0.442809
C      3.851790    1.044956   -0.076945
C     -1.667501    0.038063   -1.987243
C     -0.027445   -1.732349   -1.762665
C     -0.617744   -1.740438    1.091284
C     -2.822082    0.637333   -1.274511
C      0.841368   -2.410335   -0.733114
C     -5.128823    1.520969    0.052293
C      4.467676    2.275230    0.123176
C      2.496117    0.883539    0.050637
C      1.641543   -0.186923   -0.085051
C      1.718164    1.970562    0.386996
C     -0.916401   -0.572887    0.139182
C      0.342749    0.255497    0.170117
N      0.442732    1.546073    0.446172
N      0.197347   -2.712482    0.477850
N     -1.145128   -1.041658   -1.188891
O     -6.238741    2.039760    0.723460
O      5.835523    2.412473   -0.011267
H      3.510571   -5.587968    0.433117
H      3.397919   -4.243595    1.699796
H     -7.245419    0.238758    1.157925
H     -7.941248    1.819846    1.809213
H     -8.065162    1.416730    0.083900
H      7.510125    3.672999    0.105322
H      6.133738    3.979136    1.243984
H      5.921815    4.411250   -0.467002
H      1.195316   -5.326001   -0.124617
H     -2.042405    2.554675   -0.954481
H     -3.904283   -1.215085   -1.442781
H     -4.049601    3.359784    0.217011
H     -5.925081   -0.393646   -0.263927
H      4.114841    4.307481    0.619094
H      1.675730    4.083688    0.863494
H      0.024645   -4.244158    1.947361
H      1.420701   -3.156679    2.076545
H      2.729456   -1.551493   -1.360004
H      2.591738   -2.022942    0.412733
H      4.483156    0.215507   -0.338172
H     -1.988529   -0.368524   -2.966566
H     -0.901977    0.838066   -2.157756
H     -0.422719   -2.490819   -2.474813
H      0.591139   -1.020318   -2.352484
H     -0.080215   -1.287370    1.948218
H     -1.570514   -2.144076    1.505427
H      1.223958   -3.344728   -1.192853
H     -1.753214    0.020300    0.494549
H     -0.360960    2.168611    0.684710
