62

C     -3.716131   -5.177153    0.537912
C      7.527137    0.202499   -0.566089
C      4.167078    3.459381    1.191440
C     -2.612551   -4.552635    0.896581
C     -4.915231    3.798133   -2.341295
C     -5.134407    2.462068   -2.089358
C     -3.770484    4.439175   -1.869690
C     -4.177901    1.791339   -1.355021
C     -2.836746    3.749451   -1.142976
C      2.848337   -1.011518   -0.033230
C     -2.385467   -1.049072    2.165110
C      4.160834   -1.325594   -0.400777
C     -2.083989    0.352799    1.764039
C     -1.917702   -3.704388   -0.055229
C      4.842034    0.832488    0.181589
C      1.151981    0.627270    0.820227
C      0.034489   -1.363234    1.655390
C     -1.052663   -1.644850   -0.772506
C      2.512474    0.228080    0.447843
C     -1.365107   -2.007291    1.581927
C     -3.035605    2.384752   -0.871381
C      5.176946   -0.411596   -0.299892
C     -0.794002   -0.231497   -0.303216
C     -2.075149    0.415827    0.229522
C      3.565814    1.156070    0.545420
N     -1.757478   -2.340189    0.272348
N      0.134719   -0.291214    0.775783
O      6.473119   -0.705608   -0.657434
O      3.257130    2.412166    1.025488
O     -2.052213    1.759684   -0.134618
H     -4.093796   -5.050537   -0.465626
H     -4.268360   -5.815164    1.200618
H      7.413856    1.030973   -1.297548
H      7.618235    0.621068    0.460381
H      8.471555   -0.347806   -0.834207
H      3.553906    4.406287    1.239075
H      4.840603    3.521568    0.313773
H      4.721707    3.352218    2.145919
H     -2.295000   -4.730896    1.926064
H     -5.618417    4.395157   -2.910411
H     -6.026613    2.010103   -2.470303
H     -3.639217    5.474237   -2.086830
H     -4.342517    0.753657   -1.155965
H     -1.968707    4.276670   -0.796927
H      2.142799   -1.789218   -0.170896
H     -2.509020   -1.200018    3.241370
H     -3.383792   -1.312546    1.706093
H      4.415308   -2.307738   -0.778988
H     -1.097921    0.639601    2.155432
H     -2.880822    1.021971    2.139614
H     -0.886767   -4.136844   -0.212929
H     -2.400112   -3.776871   -1.050017
H      5.589911    1.627795    0.296602
H      1.215654    1.105307    1.847850
H      0.889953    1.519012    0.170354
H      0.755278   -2.159298    1.561823
H      0.037933   -0.951834    2.718190
H     -1.724420   -1.658486   -1.670357
H     -0.072364   -2.098522   -1.004181
H     -1.305457   -2.855182    2.294103
H     -0.385294    0.340240   -1.156537
H     -2.937368   -0.160249   -0.108697
