63

C     -2.316352    5.758587   -0.928970
C     -3.837968   -0.447541    2.548816
C      6.636172   -0.219105    2.451610
C      4.583734   -0.427213   -3.570712
C     -1.738185    4.621432   -1.500434
C     -4.198964   -4.465286    1.266111
C     -3.586943   -4.983775    0.113614
C     -4.082825   -3.174734    1.643195
C     -2.862301   -4.010687   -0.629713
C      2.793376   -0.464103    0.902756
C      4.075652   -0.372774    1.335517
C     -2.203076    3.380263   -0.797906
C     -2.288066    1.201769    1.238590
C      5.007347   -0.357364   -0.819646
C      1.300086   -0.597369   -1.117818
C      0.070290    0.717365    0.603706
C     -1.333655    1.478919   -1.768129
C     -3.193260   -0.964678    1.325318
C      2.598518   -0.510136   -0.489316
C     -1.000059    1.816522    0.621300
C      5.189062   -0.321895    0.547055
C     -3.355526   -2.250959    0.911645
C     -2.393751   -0.118630    0.543449
C     -2.768442   -2.732073   -0.230041
C     -0.839310    0.101104   -1.483229
C      3.712600   -0.458309   -1.282408
C     -1.822436   -0.643839   -0.586157
N     -1.974714   -1.913003   -1.003700
N     -1.234807    2.383004   -0.632719
N      0.354741    0.290880   -0.639840
O      6.429760   -0.240495    1.067055
O      3.511817   -0.486491   -2.686643
H     -2.952222    5.579693   -0.105216
H     -2.130837    6.711192   -1.293937
H     -4.875578   -0.796953    2.651545
H     -3.874328    0.674108    2.573392
H     -3.223365   -0.750463    3.469848
H      5.998274    0.482366    3.005768
H      7.710291   -0.017055    2.665110
H      6.412615   -1.245664    2.862974
H      4.153533   -0.233154   -4.579960
H      5.093731   -1.426506   -3.536143
H      5.238723    0.358277   -3.290952
H     -1.044255    4.658025   -2.286772
H     -4.791843   -5.170639    1.836420
H     -3.654648   -6.005190   -0.172206
H     -4.599586   -2.834526    2.543806
H     -2.374913   -4.393956   -1.502147
H      1.992303   -0.548800    1.620980
H      4.266186   -0.359631    2.426000
H     -2.725011    3.705169    0.096717
H     -3.036815    3.030752   -1.499308
H     -1.989307    1.058098    2.313903
H     -3.149616    1.794744    1.050275
H      5.878400   -0.275510   -1.464846
H      1.291747   -0.714905   -2.193531
H      0.908747   -1.688521   -0.807601
H     -0.243645    0.012337    1.385759
H      0.999602    1.285465    1.056874
H     -2.399985    1.469258   -2.143324
H     -0.768735    1.930832   -2.597768
H     -0.705658    2.615234    1.335128
H     -0.636322   -0.493462   -2.373147
