58

C     -2.973589    4.597440    1.267952
C      6.426311    2.105804    1.615410
C     -1.889296    3.996525    0.798241
C     -1.654072   -5.612571   -0.186874
C     -2.830313   -5.153205    0.354370
C     -0.897813   -4.764927   -0.979998
C     -3.252687   -3.851986    0.106697
C     -1.352292   -3.460204   -1.209827
C      2.606551   -0.861601    1.094059
C      3.256541    0.459403   -0.735563
C     -3.043687    0.661427   -1.150287
C     -2.076422    1.514587   -1.927088
C      3.631395   -0.324179    1.841995
C      4.285510    1.004133    0.003491
C     -1.448603    2.712021    1.327410
C     -3.000378   -1.661586   -0.955657
C      1.298056   -1.050956   -1.065234
C      0.250744    1.102133   -1.346225
C     -0.954510    0.395241    0.975239
C     -2.521208   -2.999025   -0.672700
C      2.379378   -0.495152   -0.213231
C     -2.293542   -0.590338   -0.763968
C     -0.984624    1.907058   -0.920757
C      4.489277    0.617846    1.311438
C     -0.942601   -0.654027   -0.177984
N     -1.380794    1.631077    0.409980
N      0.139978   -0.262588   -0.990760
O      5.517836    1.148037    2.083949
H     -3.332114    5.554439    0.898186
H     -3.583387    4.157481    2.070325
H      6.005305    3.125500    1.771473
H      6.717087    1.990229    0.563699
H      7.360712    1.991155    2.233763
H     -1.346510    4.496477    0.011663
H     -1.328982   -6.616104    0.004590
H     -3.406882   -5.833504    0.971515
H      0.026844   -5.119431   -1.407865
H     -4.185655   -3.536716    0.555019
H     -0.776288   -2.828101   -1.832657
H      1.936474   -1.599443    1.512122
H      3.125232    0.782832   -1.760247
H     -3.234639    1.218741   -0.185971
H     -3.963980    0.443611   -1.685872
H     -2.573207    2.417939   -2.345526
H     -1.679600    0.900525   -2.756996
H      3.771632   -0.646712    2.875370
H      4.956798    1.748749   -0.427562
H     -0.473732    2.866963    1.881493
H     -2.149560    2.387178    2.154820
H     -4.028654   -1.525471   -1.359527
H      1.161196   -2.102380   -0.722557
H      1.733146   -1.069919   -2.108670
H      1.086648    1.571375   -0.789889
H      0.417122    1.298008   -2.412292
H      0.091135    0.466053    1.315132
H     -1.632164    0.037983    1.771664
H     -0.735365    2.960108   -1.154806
H     -0.743759   -1.647956    0.268338
