62

C      5.420370    1.557807   -2.732175
C      4.487004   -1.108728    3.213482
C      1.703530   -2.343920   -0.749081
C     -4.067290   -5.091869    2.034995
C     -5.741579    4.822618   -0.667124
C      4.100265    1.085844   -3.293511
C      4.745698   -1.413890    1.751796
C     -2.598654    1.147293    0.302371
C     -1.218629    2.976769   -0.133103
C     -1.196437   -2.028397    1.250570
C     -1.812301   -2.106293   -1.020843
C     -2.129129   -3.033501    1.546829
C     -2.742093   -3.097095   -0.772561
C     -3.667242    2.021435    0.563224
C     -2.278955    3.840428    0.125856
C      1.034892    1.229966   -0.686605
C      1.193202   -0.942830   -0.656495
C     -1.354511    1.590290   -0.050019
C     -1.037267   -1.565029   -0.029089
C     -2.888464   -3.551310    0.522564
C     -3.514943    3.371292    0.476907
C      1.902738    0.208364   -0.887781
C     -0.225187    0.747900   -0.328299
C      3.334073    0.301523   -1.277843
C      4.099621   -0.625219   -0.421555
N     -0.086169   -0.585244   -0.321149
O      4.825888   -1.498514   -0.913327
O     -4.355570    5.746354    1.430050
O     -5.751985    3.800033    1.770524
O     -3.821101   -4.544588    0.769247
O      3.569496    0.013218   -2.599564
O      4.007403   -0.520327    0.966445
S     -4.825312    4.467816    0.795974
H      5.275889    2.458270   -2.084649
H      5.884214    0.731909   -2.165497
H      6.104521    1.830016   -3.547686
H      3.992072   -1.995307    3.657414
H      3.825231   -0.224590    3.337362
H      5.450424   -0.873525    3.716496
H      2.353750   -2.431024   -1.652616
H      0.836555   -3.017656   -0.860379
H      2.227446   -2.640970    0.171173
H     -3.130291   -5.264363    2.589074
H     -4.717662   -4.416146    2.629875
H     -4.574036   -6.075069    1.869316
H     -5.804260    3.989789   -1.372238
H     -5.214789    5.652253   -1.202668
H     -6.759798    5.198323   -0.434879
H      4.262725    0.796122   -4.350213
H      3.414580    1.967253   -3.299473
H      4.423358   -2.463355    1.493245
H      5.839085   -1.383571    1.545385
H     -2.778281    0.106724    0.385757
H     -0.253359    3.402637   -0.409240
H     -0.632334   -1.664962    2.100943
H     -1.726209   -1.776477   -2.046484
H     -2.271801   -3.414258    2.548164
H     -3.332926   -3.498267   -1.576836
H     -4.611566    1.597004    0.833629
H     -2.137354    4.907110    0.051881
H      1.295922    2.263477   -0.792283
H      3.647529    1.366460   -1.115285
