24

C      2.977494    1.026256   -0.556002
C      3.689314    0.117154    0.165198
C      1.600165    0.981454   -0.503467
C      3.048311   -0.829425    0.934392
C     -1.160735    0.884367   -0.902795
C     -2.905591   -0.850220   -0.468793
C     -1.433714   -0.606066   -0.646193
C      0.887545    0.067195    0.240768
C     -0.576800    0.114103    0.270875
C      1.655347   -0.838284    0.959792
Br     0.779513   -2.146507    2.022211
N     -3.510619   -0.137238    0.618616
H      3.460931    1.794897   -1.166126
H      4.788403    0.174756    0.103768
H      1.083092    1.740548   -1.109156
H      3.649360   -1.531024    1.488935
H     -1.921097    1.626717   -0.664449
H     -0.614855    1.025531   -1.832243
H     -3.147563   -1.940968   -0.433451
H     -3.409958   -0.496831   -1.417493
H     -0.950224   -1.351291   -1.316257
H     -0.957378    0.421523    1.282945
H     -4.095259    0.676711    0.290250
H     -2.935681    0.076642    1.426725
