58

C     -5.304797    2.573606   -1.677088
C     -4.572988   -4.186910    0.315834
C     -1.883148    2.706919   -0.280831
C      6.612941   -3.048791   -0.813709
C     -4.483200    1.343191   -1.938842
C     -3.188480   -3.669990    0.625700
C      2.534823    4.731586    0.903927
C      2.402188    4.298711   -0.394520
C      1.903147    4.030378    1.897637
C      1.650602    3.184463   -0.689155
C      1.153434    2.919067    1.604586
C      1.920034   -1.991075    0.008331
C      2.963785    0.048864    0.452688
C      3.084755   -2.675177    0.180410
C      4.167886   -0.654984    0.630957
C     -0.640352   -0.698807   -0.392394
C     -1.161930    1.421684   -0.271575
C      1.814179   -0.611083    0.136815
C      0.996363    2.449771    0.295540
C      4.237668   -2.020451    0.496412
C     -1.700602    0.186543   -0.520331
C      0.510199    0.035218   -0.068830
C     -3.116576   -0.188438   -0.872854
C     -3.548517   -1.326961   -0.061256
N      0.187075    1.317335    0.002448
O     -4.544059   -1.272379    0.698280
O      6.558134   -2.241454    1.783823
O      5.396374   -4.303375    1.193318
O     -3.893235    0.926326   -0.755535
O     -2.857773   -2.518706   -0.110643
S      5.728891   -2.903515    0.715917
H     -6.402143    2.391543   -1.819979
H     -5.128800    2.977638   -0.641371
H     -5.054875    3.409849   -2.362210
H     -4.642323   -4.545865   -0.712779
H     -5.363382   -3.458171    0.551562
H     -4.741906   -5.059306    0.991141
H     -1.236472    3.509004    0.159047
H     -2.816873    2.618894    0.342823
H     -2.186501    2.947896   -1.307040
H      5.856200   -2.939782   -1.630745
H      7.374963   -2.238407   -0.889473
H      7.101384   -4.041533   -0.850321
H     -5.057057    0.539154   -2.438076
H     -3.668895    1.620423   -2.638401
H     -2.476561   -4.474523    0.281665
H     -3.041073   -3.575321    1.702852
H      3.119941    5.608008    1.180707
H      2.914864    4.872266   -1.177550
H      1.986868    4.343900    2.929839
H      1.580707    2.889747   -1.725119
H      0.633438    2.329822    2.359256
H      1.026984   -2.534468   -0.240397
H      2.985119    1.110380    0.573395
H      3.056636   -3.756436    0.056194
H      5.054370   -0.080562    0.881702
H     -0.726307   -1.759494   -0.528549
H     -3.075126   -0.566222   -1.937329
