24

C     -3.288126    0.933457   -0.552960
C     -3.827363    0.264738    0.515279
C     -1.948857    0.876530   -0.799142
C     -2.995629   -0.461116    1.339104
C      1.157717   -0.931362   -0.759522
C      2.923275    0.594577    0.207175
C      1.581884   -0.138858    0.461899
C     -1.038951    0.156315    0.001259
C      0.389447    0.238895   -0.198839
C     -1.652112   -0.481928    1.050224
Br    -0.552935   -1.519008    2.188967
N      3.955471   -0.415562   -0.040637
H     -3.969218    1.506617   -1.174455
H     -4.895341    0.288449    0.780925
H     -1.571383    1.418711   -1.641511
H     -3.423700   -0.994545    2.165071
H      0.628359   -1.885783   -0.629606
H      1.733656   -0.867594   -1.674664
H      3.201966    1.216064    1.066531
H      2.835943    1.188704   -0.760143
H      1.701624   -0.629068    1.450939
H      0.589670    1.185652   -0.893999
H      4.843798   -0.184919    0.468955
H      3.620805   -1.358966    0.315388
