52

C      6.278933    0.529302   -1.383768
C      2.689658   -1.073556   -1.122075
C     -6.594098    2.066469    1.689900
C      5.798940    1.114696   -0.071518
C     -0.940555   -2.342906   -3.458645
C     -1.080068   -1.274153   -4.309959
C     -0.488650   -2.127298   -2.176997
C     -2.204982    0.059050    2.241990
C     -2.704701   -0.338258   -0.037530
C     -3.537575    0.238222    2.527414
C     -4.070764   -0.159693    0.228535
C     -0.320930    0.212047   -2.608088
C      0.586443   -0.316393    1.772845
C      1.671613   -0.750979   -0.089081
C     -1.775559   -0.230258    0.960109
C     -0.773030   -0.016730   -3.885033
C     -0.169959   -0.855708   -1.722477
C     -4.448793    0.122717    1.499402
C      1.842051   -0.531991    1.231253
C     -0.325118   -0.414466    0.724396
C      3.064386   -0.457164    2.056305
C      4.103842    0.452341    1.583323
F     -0.916353    1.021594   -4.735700
N      0.338987   -0.676243   -0.394759
O      2.728054   -0.066766    3.364923
O      4.399063    1.471763    2.281873
O     -6.362956    0.014789    3.340016
O     -7.022061   -0.509483    1.032446
O      4.790475    0.268930    0.419965
S     -6.142660    0.352809    1.874035
H      7.342117    0.868818   -1.506050
H      6.228988   -0.577518   -1.269466
H      5.626753    0.911396   -2.172398
H      2.160568   -1.684774   -1.934703
H      3.496339   -1.689773   -0.713658
H      3.084462   -0.148701   -1.560290
H     -7.637373    2.179688    2.043838
H     -5.905804    2.681716    2.307037
H     -6.523656    2.326638    0.603308
H      6.609919    1.176625    0.681257
H      5.389934    2.150786   -0.250118
H     -1.178251   -3.368562   -3.766703
H     -1.434679   -1.437608   -5.317967
H     -0.383170   -2.990896   -1.511080
H     -1.505158    0.152636    3.053056
H     -2.445848   -0.561184   -1.050166
H     -3.827789    0.462335    3.540630
H     -4.801956   -0.247100   -0.569325
H     -0.078680    1.211371   -2.275765
H      0.379148   -0.115746    2.804630
H      3.443726   -1.520525    2.116946
H      3.546775   -0.169010    3.913885
