52

C     -6.253084   -0.662958    0.366153
C     -2.619248   -1.500063   -0.314393
C      7.057578    2.015012   -0.782369
C     -6.477169    0.224414   -0.862431
C      1.188536   -3.905912    0.715989
C      1.074526   -3.974360    2.083549
C      0.749253   -2.772593    0.073678
C      2.205723    2.213142   -0.543938
C      2.668087    0.232240    0.579444
C      3.489079    2.661588   -0.341403
C      3.984929    0.681818    0.792462
C      0.087227   -1.770304    2.091906
C     -0.526877    1.377766   -1.031589
C     -1.566993   -0.450085   -0.481236
C      1.756312    0.999150   -0.096668
C      0.526353   -2.906495    2.747813
C      0.193198   -1.677268    0.696104
C      4.385293    1.893201    0.330307
C     -1.749389    0.746236   -1.125208
C      0.393424    0.584729   -0.341914
C     -2.970801    1.277175   -1.786533
C     -4.177093    1.081321   -0.978844
F      0.400006   -2.947165    4.114749
N     -0.273884   -0.535086   -0.014639
O     -3.138249    0.770508   -3.075113
O     -4.217947    1.468490    0.207486
O      5.956520    4.024017    0.552267
O      6.576291    2.105039    1.885356
O     -5.279220    0.459608   -1.544263
S      6.022311    2.506693    0.568092
H     -7.219641   -1.042312    0.754355
H     -5.776083   -0.078736    1.159662
H     -5.664418   -1.564470    0.083562
H     -2.141212   -2.503722   -0.123242
H     -3.324789   -1.236252    0.498510
H     -3.197637   -1.620682   -1.238204
H      7.776854    2.813075   -0.990640
H      7.536230    1.050770   -0.516694
H      6.422317    1.881234   -1.693412
H     -7.169214   -0.344353   -1.513386
H     -6.956786    1.160027   -0.523201
H      1.621308   -4.735804    0.136038
H      1.421033   -4.871343    2.603028
H      0.846387   -2.735901   -1.000028
H      1.537940    2.857070   -1.079447
H      2.438156   -0.731149    0.976221
H      3.776805    3.619353   -0.716268
H      4.692081    0.064236    1.328067
H     -0.345663   -0.922097    2.595434
H     -0.332208    2.363568   -1.448777
H     -2.827950    2.388631   -1.925626
H     -2.578199   -0.031002   -3.217848
