52

C     -5.968729    2.789013   -0.010717
C     -2.407028   -2.872517    0.445867
C      6.213367    2.699703    0.630469
C     -4.597942    2.484818   -0.593193
C      1.748318   -4.668165   -1.710549
C      1.798136   -4.408810   -0.361677
C      0.988961   -3.806605   -2.477983
C      1.140792   -3.362981    0.207294
C      0.319296   -2.748157   -1.927056
C      2.417093   -0.086973   -0.625754
C      1.518094    1.820863    0.361275
C      3.598830    0.624111   -0.878976
C      2.667061    2.531990    0.121486
C     -0.996717    0.425401    0.938365
C     -1.590104   -1.634588    0.513008
C      1.349536    0.495331    0.000292
C      0.375307   -2.495624   -0.571068
C      3.728695    1.931412   -0.508061
C     -2.036834   -0.465510    1.075230
C      0.083275   -0.191022    0.296136
C     -3.376248   -0.202002    1.708879
C     -3.900882    1.081494    1.242507
N     -0.316626   -1.434791    0.056364
O     -3.260195   -0.167690    3.096289
O     -4.166681    1.990387    2.047341
O      4.754142    4.318514   -0.885542
O      5.862643    2.492521   -2.052502
O     -4.093332    1.255136   -0.124894
S      5.164787    2.877429   -0.786872
H     -6.499796    1.837735    0.109034
H     -5.891874    3.302023    0.958942
H     -6.522314    3.466207   -0.723093
H     -2.958842   -2.968662    1.393388
H     -3.138318   -2.794930   -0.393942
H     -1.759002   -3.764192    0.313763
H      5.980628    1.775471    1.212242
H      7.247367    2.565512    0.252702
H      6.132024    3.553599    1.333800
H     -3.869052    3.291108   -0.387166
H     -4.674808    2.382798   -1.711543
H      2.277310   -5.502244   -2.137423
H      2.379001   -5.052394    0.288918
H      0.952097   -4.014975   -3.543778
H      1.184193   -3.162289    1.278647
H     -0.270560   -2.087886   -2.560122
H      2.355914   -1.104876   -0.930903
H      0.702792    2.313038    0.854781
H      4.422575    0.112662   -1.382211
H      2.759847    3.566905    0.419224
H     -1.037955    1.448222    1.287098
H     -4.067689   -1.047235    1.479163
H     -2.720551    0.611713    3.362521
