36

C     -3.299330   -1.304859   -1.108978
C     -3.163878   -0.752895    1.267839
C     -0.062219    2.828816    1.346918
C      2.245874   -2.174435   -0.566456
C      4.028050   -0.543904   -0.553006
C      0.928429   -2.518051   -0.413200
C      4.402304    0.762642   -0.367590
C      2.691584   -0.884034   -0.395936
C      0.011561   -1.529508   -0.074036
C      3.438508    1.671784   -0.035690
C      0.480810   -0.241406    0.092141
C      1.805183    0.108599   -0.061051
C     -0.530945    0.790974    0.454980
C     -1.768637    0.506202   -0.383160
C     -2.338408   -0.835140   -0.017037
O      3.755552    2.894870    0.143398
O     -1.345259    0.436359   -1.709100
O     -0.107028    2.074725    0.195210
O      2.185501    1.372432    0.115272
O     -1.335232   -1.818381    0.094470
H     -2.765494   -1.465059   -2.055111
H     -3.710277   -2.280556   -0.754937
H     -4.132261   -0.555697   -1.210886
H     -3.760026   -1.665261    1.359904
H     -2.428247   -0.669521    2.094833
H     -3.761001    0.162092    1.191021
H      0.283288    3.859760    1.106109
H     -1.086077    2.887849    1.785946
H      0.621643    2.423162    2.118563
H      2.969930   -2.939755   -0.831387
H      4.762906   -1.288685   -0.815839
H      0.564437   -3.519670   -0.542570
H      5.427468    1.080285   -0.477332
H     -0.728331    0.692421    1.528499
H     -2.527565    1.288127   -0.252805
H     -1.752811    1.145722   -2.268995
