48

C      5.328751    2.600566   -0.660074
C      3.415743   -1.639803    1.288430
C     -3.721346    0.339667   -1.713447
C      4.767288   -1.844405    1.149158
C     -5.047909    0.703472   -1.661975
C      1.386998   -0.260778    1.085827
C     -1.736207   -0.980348   -0.908320
C      3.687595    0.521037    0.409129
C     -3.994522   -1.176847    0.073904
C      1.036350    0.134262   -1.294497
C     -7.387614   -0.285498    0.875359
C      2.844591   -0.421113    0.909524
C     -3.163177   -0.589108   -0.868676
C      0.594142   -0.706956   -0.114928
C     -0.853676   -0.208586    0.016280
C      5.595375   -0.857843    0.633920
C     -5.841255    0.099651   -0.714276
C      5.048120    0.345435    0.257156
C     -5.325317   -0.840718    0.157472
C     -0.684441    1.219167   -0.358268
O      6.957808   -1.051374    0.488569
O     -0.742806    2.004092    0.820431
O      5.854021    1.366436   -0.267816
O      0.566962    1.379516   -0.946774
O     -7.190804    0.256088   -0.423364
O     -6.375608   -1.265415    0.993526
H      5.171044    3.298032    0.205784
H      6.089529    3.113883   -1.310296
H      4.391914    2.532812   -1.238829
H      2.796327   -2.425974    1.692467
H     -3.110935    0.819674   -2.472019
H      5.203625   -2.800595    1.448342
H     -5.476191    1.444209   -2.341112
H      1.093071   -0.861392    1.996549
H      1.183132    0.787773    1.334209
H     -1.697303   -2.057249   -0.588776
H     -1.364411   -0.969355   -1.941665
H      3.282010    1.475912    0.107470
H     -3.581418   -1.923353    0.764720
H      0.540955   -0.288628   -2.190147
H      2.106436    0.122166   -1.474011
H     -7.220321    0.462346    1.665703
H     -8.403557   -0.730796    0.973623
H      0.636862   -1.778779   -0.292844
H     -1.163819   -0.352148    1.083834
H     -1.416898    1.627845   -1.050337
H      7.362169   -1.948263    0.769975
H     -1.441278    1.611282    1.388909
