48

C      5.528782    2.455388   -0.808484
C      3.139973   -0.570705    2.319436
C     -3.764264   -1.682863   -1.012271
C      4.483077   -0.747600    2.579385
C     -5.134964   -1.568014   -1.043538
C      1.243767    0.496024    1.073954
C     -1.439050   -0.693749   -1.214269
C      3.650043    1.002313    0.655632
C     -3.534796    0.592073   -1.523409
C      0.875016   -1.889180    0.409702
C     -7.033158    1.469396   -1.400625
C      2.682772    0.304429    1.355281
C     -2.912950   -0.629885   -1.245619
C      0.716185   -0.434133    0.021695
C     -0.817665   -0.343296    0.093702
C      5.448951   -0.045379    1.874994
C     -5.710308   -0.351367   -1.319741
C      5.001703    0.830952    0.910033
C     -4.905021    0.736005   -1.561404
C     -1.122714   -1.347911    1.155007
O      6.809878   -0.221598    2.135138
O     -1.688416   -0.649864    2.246440
O      5.952958    1.547104    0.189788
O      0.075055   -1.931746    1.551941
O     -7.052413    0.054494   -1.416422
O     -5.729994    1.843558   -1.814212
H      6.347924    3.103697   -1.148396
H      5.115373    1.884706   -1.665447
H      4.712873    3.121215   -0.419264
H      2.439303   -1.156987    2.913108
H     -3.354493   -2.654307   -0.800607
H      4.818765   -1.445196    3.346295
H     -5.783035   -2.420219   -0.854246
H      1.016989    1.533517    0.733190
H      0.617578    0.346421    1.992320
H     -1.062781    0.014007   -2.010672
H     -1.149711   -1.699534   -1.585983
H      3.290961    1.691306   -0.103332
H     -2.929308    1.475975   -1.720117
H      1.909727   -2.174190    0.616535
H      0.475390   -2.527556   -0.375230
H     -7.764817    1.817829   -2.154829
H     -7.273316    1.886866   -0.398281
H      1.087726   -0.217839   -0.989241
H     -1.118195    0.685839    0.383965
H     -1.829529   -2.130320    0.905077
H      7.452679    0.326129    1.580250
H     -1.782549    0.314195    2.055662
