43

C     -0.091339    1.384210   -0.783043
C     -5.722614   -0.185343    0.647124
C     -2.300389   -0.054031    0.021755
C     -1.041165   -0.167079    0.743350
C     -3.345168   -0.755372    0.415907
C      2.138223   -0.933206   -0.811623
C      1.820487    1.801061    1.547350
C      0.070283    0.508926    0.399658
C     -4.630663   -0.659802   -0.296621
C      2.502456   -0.130126    0.397952
C      1.324593    0.399000    1.144891
C      3.395225   -1.427293   -1.465964
C      3.381049    1.060437    0.065106
C     -5.056955   -1.981969   -0.843665
C      4.639755    1.085730    0.827451
N      2.579056    2.203364    0.402175
O      4.227874   -2.099445   -0.807267
O      3.677721   -1.165179   -2.785163
O     -4.405925   -3.025249   -0.680447
O     -6.237661   -2.048771   -1.570653
O      4.895614    2.012312    1.655723
O      5.646342    0.118936    0.715756
H     -0.509482    0.851963   -1.675912
H     -0.801864    2.195528   -0.465502
H      0.809132    1.883098   -1.128007
H     -5.268971    0.540144    1.345353
H     -6.468010    0.379394    0.045001
H     -6.174312   -1.061770    1.140877
H     -2.360528    0.623886   -0.846838
H     -0.970784   -0.819135    1.597091
H     -3.216045   -1.390385    1.264759
H      1.559015   -1.817928   -0.487221
H      1.530874   -0.351565   -1.500675
H      0.981865    2.467011    1.816604
H      2.465159    1.733709    2.446102
H     -4.570858    0.047257   -1.128033
H      3.127513   -0.804193    1.046579
H      1.244525   -0.150622    2.090691
H      3.630855    1.074777   -1.026320
H      3.145962    3.060415    0.593157
H      4.444062   -1.557254   -3.307699
H     -6.274624   -2.767812   -2.312201
H      6.209718   -0.077626    1.552441
