35

C      2.380333   -1.420086    0.057233
C      2.099875    0.372644   -1.558519
C      0.713440    1.924500    0.150699
C     -0.725541    2.151362   -0.144886
C     -0.382620   -1.328787    1.755342
C      0.111958   -0.954638   -0.927852
C      0.993377    0.518208    0.700919
C     -1.453209    1.010033   -0.770342
C     -0.346349    0.015702    1.147178
C     -1.780476   -1.742031    1.469593
C     -2.151221   -1.118230    0.178955
C     -2.900949    1.006518   -0.349477
C      1.415680   -0.374139   -0.428646
C     -0.985342   -0.272273   -0.220220
O     -2.474969   -2.444991    2.151956
O     -3.721920    1.937456   -0.550320
O     -3.201748   -0.182846    0.297936
H      2.107810   -2.451549   -0.261747
H      2.547036   -1.362856    1.172413
H      3.418019   -1.266274   -0.364798
H      2.914509    1.018775   -1.223440
H      2.592446   -0.432545   -2.181924
H      1.377344    0.851384   -2.246725
H      1.001432    2.636311    0.977234
H      1.324595    2.181980   -0.704954
H     -1.304573    2.528055    0.746274
H     -0.779572    3.010998   -0.875668
H      0.258713   -2.077869    1.218594
H     -0.158945   -1.331176    2.841653
H      0.012601   -0.757197   -2.020192
H      0.101535   -2.059744   -0.823063
H      1.747204    0.571877    1.501048
H     -1.447131    1.028597   -1.878927
H     -0.925600    0.713951    1.739511
H     -2.377741   -1.901120   -0.574837
