92

C     -6.595700    1.208764    1.450338
C      1.682741   -5.132044    1.252370
C      3.882836   -1.059702    0.712839
C      3.295005   -2.355028   -1.267715
C     -2.138763    1.136674   -1.185184
C     -3.804430   -0.343228    1.909182
C     -8.324079   -0.125765   -0.415335
C     -7.074895    1.709656   -1.330528
C      9.171233    2.101041    1.492749
C      9.482304    1.018497    0.707884
C      7.841897    2.506240    1.481488
C      8.563450    0.339816   -0.064439
C      6.904702    1.849750    0.722275
C     -4.480870   -0.371393   -1.286125
C     -3.185581   -1.036277   -0.867135
C      2.101328    1.673695   -0.703432
C     -0.535719   -1.231701   -0.177793
C      0.705023    1.190829    1.107674
C     -3.099422    1.900279    1.276493
C     -6.092043    0.324396    0.367653
C      1.376408   -3.678401    1.311157
C      7.240565    0.777234   -0.048504
C      1.488051    0.720517   -0.005504
C     -4.747367    0.678921   -0.195843
C      2.924804    1.195312   -1.869296
C      0.869298   -1.572497    0.292455
C     -1.311123   -0.309842    0.655230
C     -1.634491    1.996965    1.460811
C      1.733443   -0.656381   -0.509651
C      3.852910    0.076501   -1.458981
C      6.204161    0.117249   -0.835614
C      3.172246   -0.993598   -0.612992
C     -2.509907    0.093634   -0.185920
C     -3.597131    0.576175    0.757193
C     -0.743183    0.938137    1.155571
N      5.019723    0.548868   -0.788893
N     -7.018223    0.372861   -0.780036
O      1.328323   -3.137184    2.449704
O      2.164940    0.917140   -2.974939
O      6.511719   -0.973573   -1.628687
O      1.149370   -2.932385    0.164262
O     -1.176492    1.258877    2.568029
H     -5.887553    1.905026    1.892405
H     -7.474717    1.839539    1.110546
H     -7.065873    0.559614    2.248150
H      2.744813   -5.255721    1.540817
H      0.992420   -5.679757    1.927241
H      1.502207   -5.469217    0.210289
H      3.317127   -1.508950    1.525651
H      4.792706   -1.698033    0.551541
H      4.270935   -0.044378    0.943725
H      3.562697   -3.111071   -0.503915
H      2.356867   -2.599160   -1.803015
H      4.118449   -2.375072   -2.013437
H     -2.802909    2.006878   -1.088300
H     -1.061986    1.418071   -1.173921
H     -2.310189    0.752533   -2.234157
H     -4.806319   -0.207228    2.361652
H     -3.689211   -1.409101    1.704876
H     -3.097469   -0.051995    2.741028
H     -8.753945   -0.587347   -1.350725
H     -8.214778   -0.938245    0.301488
H     -9.026567    0.668724   -0.131294
H     -6.643117    2.476480   -0.640251
H     -8.131658    1.984312   -1.562730
H     -6.448326    1.729056   -2.245642
H      9.874424    2.632373    2.093399
H     10.510776    0.663656    0.683265
H      7.509884    3.358409    2.077604
H      8.828083   -0.505522   -0.671719
H      5.873093    2.192657    0.736054
H     -4.273562    0.204106   -2.230613
H     -5.298746   -1.073887   -1.422680
H     -3.425649   -1.903969   -0.250096
H     -2.640881   -1.405894   -1.765639
H      1.998735    2.704325   -0.432257
H     -1.082578   -2.216328   -0.208543
H     -0.549155   -0.893576   -1.252736
H      1.190713    0.786241    2.051669
H      0.871928    2.305916    1.229987
H     -3.553512    2.710703    0.669885
H     -3.560245    2.028817    2.303307
H     -6.070458   -0.755435    0.647075
H     -4.756628    1.705537   -0.623687
H      3.582284    2.065981   -2.130294
H      0.888479   -1.257624    1.367697
H     -1.725177   -0.920149    1.516028
H     -1.245105    3.048956    1.489119
H      1.333622   -0.717756   -1.571178
H      4.153325   -0.419158   -2.406390
H      2.656205    1.011009   -3.819415
H      6.069483   -1.073374   -2.512401
