58

C     -2.987030    2.122072    1.477511
C      3.342633   -1.524046   -1.330857
C      2.783778   -1.955533    0.994913
C     -2.787566   -1.670817   -3.753692
C     -4.716372    0.394393    1.870476
C      0.451546   -1.280179   -0.749349
C      5.048029   -0.285829    0.622423
C      5.768982    1.870425    1.171837
C     -5.282001   -1.261765    0.343882
C     -1.891432   -1.780689   -1.483693
C     -3.753154    0.923852    1.022227
C     -0.833578   -0.864058   -1.015762
C     -5.492656   -0.683202    1.574280
C      6.059632    0.546684    1.026684
C      1.430220   -0.361160   -0.338574
C      3.752950    0.162030    0.357944
C      4.485591    2.400662    0.924192
C     -4.318193   -0.750165   -0.531167
C     -3.540819    0.330953   -0.231497
C     -1.122439    0.499298   -0.860696
C      3.503032    1.500598    0.516245
C      1.141041    0.966082   -0.192405
C     -0.175235    1.394767   -0.465637
C      2.144714    1.944175    0.234309
C     -2.545042    0.863446   -1.171543
C      2.776427   -0.860169   -0.068691
C     -2.863137   -1.101855   -2.379195
O     -6.455615   -1.215315    2.417758
O      7.356218    0.050123    1.283417
O      4.274419    3.736806    1.092242
O     -0.386277    2.749396   -0.307418
O      1.832002    3.161056    0.355836
O     -4.174940   -1.420567   -1.782989
O     -2.792909    0.262308   -2.444693
H     -1.950607    1.895773    1.733490
H     -3.444445    2.459088    2.460913
H     -3.153865    2.988311    0.814022
H      2.852258   -1.084889   -2.247698
H      4.427470   -1.279053   -1.449453
H      3.252887   -2.610106   -1.287849
H      2.918649   -1.510397    2.013218
H      3.678849   -2.584222    0.823810
H      1.881481   -2.578540    0.956416
H     -1.990195   -1.131334   -4.305473
H     -3.750975   -1.644361   -4.301403
H     -2.437518   -2.734067   -3.675072
H     -4.877926    0.858045    2.844975
H      0.666844   -2.326906   -0.869060
H      5.296237   -1.345037    0.510371
H      6.537340    2.563996    1.489136
H     -5.843493   -2.110329    0.025043
H     -1.402454   -2.612903   -2.099535
H     -2.390605   -2.285112   -0.610404
H     -2.588494    1.937308   -1.314467
H     -7.430813   -0.913682    2.415259
H      7.495582   -0.244048    2.257751
H      3.473936    4.246617    0.967722
H     -1.252959    3.182074   -0.509743
