48

C      6.250088   -2.091497   -1.829404
C     -2.919837    3.340616   -2.804772
C      5.035948   -2.423830   -2.379939
C      6.294899   -1.155756   -0.840587
C     -3.640092    2.408573   -2.091995
C     -1.617147    3.566184   -2.424518
C      3.889504   -1.814068   -1.931196
C      5.139878   -0.530251   -0.376762
C     -3.068492    1.717628   -1.022043
C     -1.040558    2.892980   -1.372440
C      2.720157   -0.250779   -0.486329
C      2.597973    0.659961    0.447785
C     -2.992401   -1.374628    3.626760
C      3.935292   -0.869347   -0.932810
C     -1.771804    1.969367   -0.674728
C     -1.891201   -1.437294    2.600454
C      1.278117    1.216408    0.811788
C     -4.190951   -1.145124    2.755159
C     -2.045822   -1.100222    0.288590
C     -1.160214    1.251175    0.443522
C     -2.570294   -2.042471    1.386528
C     -2.009224    0.174383    1.048402
O      1.149608    2.082324    1.697747
O     -5.172107   -0.450836    3.090876
O     -0.746049   -1.586553    0.016629
O     -1.391244   -0.216160    2.240900
O      0.146068    0.784612    0.171500
O     -3.959982   -1.837603    1.580015
H      7.148838   -2.590535   -2.203254
H     -3.371138    3.885576   -3.648886
H      4.979548   -3.172392   -3.174369
H      7.251666   -0.885184   -0.397572
H     -4.648124    2.231776   -2.383680
H     -1.069738    4.312012   -3.009103
H      2.928315   -2.104012   -2.395203
H      5.243400    0.216235    0.423403
H     -3.724693    1.010772   -0.534089
H      0.008890    3.119372   -1.117169
H      1.768383   -0.550965   -0.958902
H      3.481852    1.004636    0.955698
H     -2.857967   -0.593355    4.377151
H     -3.111220   -2.397958    4.053580
H     -1.048471   -2.100798    2.939539
H     -2.670003   -1.135654   -0.598921
H     -1.024644    2.016896    1.268129
H     -2.297866   -3.080316    1.202254
H     -3.012923    0.499763    1.299629
H     -0.224219   -1.423657    0.862635
