51

C      0.007371   -3.496042   -0.754069
C      6.442980    0.886417    0.028657
C     -6.254235    2.885214    0.670657
C     -7.527403    2.572046    0.202730
C      5.431268    1.999107    0.115810
C      5.757237   -0.436525    0.115617
C     -5.242196    1.975083    0.638517
C     -7.690290    1.311117   -0.282781
C     -4.067418   -1.524662   -0.249949
C     -2.827439   -2.027540   -0.076628
C      4.334569    1.680255   -0.882245
C      4.294165   -0.372292    0.374374
C      0.233213   -0.193864    1.043452
C      2.273463    0.887744    0.070879
C      1.597617   -0.399896    0.480886
C     -5.425647    0.679080    0.134994
C     -6.664100    0.358992   -0.325579
C     -0.456937   -1.507638    0.771998
C     -4.322280   -0.251249    0.121244
C     -1.857959   -1.268176    0.459591
C      1.369081   -1.310322   -0.644657
Cl    -6.990323   -1.225801   -0.970264
N      0.291766   -2.181182   -0.240654
N      3.574845    0.536124   -0.451290
O      1.921745   -1.412817   -1.768579
S     -2.654071    0.233214    0.758111
H      0.943353   -4.035449   -1.063076
H     -0.607412   -3.467923   -1.696038
H     -0.458727   -4.160099    0.006621
H      6.920437    0.972050   -0.978034
H      7.187265    1.052957    0.852793
H     -6.065159    3.867126    1.066267
H     -8.263822    3.334064    0.260905
H      5.906462    2.935335   -0.173686
H      4.963908    2.102423    1.095094
H      6.220321   -0.979746    0.992426
H      6.018477   -1.079633   -0.761737
H     -4.273807    2.231020    1.000669
H     -8.654643    1.018035   -0.656703
H     -4.899758   -2.136283   -0.696212
H     -2.568417   -3.086832   -0.371699
H      3.648864    2.553090   -0.881089
H      4.726402    1.588186   -1.917158
H      3.876610   -1.400059    0.182480
H      4.074886   -0.163932    1.439967
H     -0.340331    0.603102    0.525231
H      0.281168   -0.002832    2.146270
H      1.631654    1.367569   -0.677248
H      2.395377    1.566126    0.933421
H      2.196362   -0.955496    1.253256
H     -0.408492   -2.119189    1.708864
