48

C      6.377672    2.102154    1.690992
C     -1.290112    3.624735    1.119598
C      5.143235    2.073358    2.262439
C      6.598828    1.502949    0.487590
C     -1.115226    2.417800    1.755047
C     -2.114514    3.667423    0.017099
C      4.099330    1.416933    1.594181
C      5.552506    0.847930   -0.176890
C     -1.758084    1.298170    1.281807
C     -2.754097    2.518318   -0.442263
C      3.219775    0.140730   -0.286190
C      1.977743    0.034865    0.148860
C     -3.279251   -4.093910   -1.709847
C      4.302950    0.809944    0.385460
C     -2.583581    1.304103    0.189490
C     -3.285466   -2.764391   -1.005852
C      0.967572   -0.675651   -0.634942
C     -1.933914   -4.628024   -1.432093
C     -3.233447    0.076981   -0.276556
C     -1.958991   -2.666118   -0.259536
C     -2.526504   -0.689824   -1.330811
C     -1.337364   -1.478995   -0.933234
O      1.319399   -1.177696   -1.727500
O     -1.479858   -5.686172   -1.937573
O     -3.654590   -0.740885    0.782094
O     -3.341169   -1.693772   -1.890877
O     -0.333496   -0.825792   -0.250713
O     -1.243544   -3.826840   -0.555606
H      7.214053    2.605003    2.184345
H     -0.782889    4.535967    1.483651
H      4.982355    2.547782    3.208046
H      7.550993    1.482609   -0.030700
H     -0.480559    2.346112    2.616837
H     -2.247044    4.612872   -0.474500
H      3.159426    1.447456    2.124832
H      5.719212    0.364762   -1.141360
H     -1.604796    0.373504    1.810009
H     -3.400696    2.550685   -1.306597
H      3.423603   -0.337678   -1.260880
H      1.745315    0.493037    1.101137
H     -3.501091   -4.009863   -2.792101
H     -4.018768   -4.797959   -1.272895
H     -4.155231   -2.719690   -0.352339
H     -4.234542    0.371547   -0.760811
H     -2.189770   -2.553276    0.793208
H     -2.232957   -0.038320   -2.186614
H     -0.901821   -1.888899   -1.900124
H     -4.380595   -0.273973    1.292680
