92

C     -6.401072    1.564420   -0.856673
C      1.442374    4.348256   -1.932052
C      3.684376    1.167963   -1.132017
C      2.965258    1.482951    1.257642
C     -2.648811   -2.011807   -1.039366
C     -3.782026    1.247669    0.574180
C     -8.349907    0.270908    0.591766
C     -7.060950   -1.616406    0.951237
C     10.258282   -1.395250   -0.299373
C      9.130452   -2.189799   -0.334654
C     10.163527   -0.036318   -0.035211
C      7.903151   -1.626948   -0.105571
C      8.910468    0.466139    0.185108
C     -4.627283   -0.396045   -2.175714
C     -3.193612    0.090625   -2.104904
C      2.196563   -1.596658    1.638094
C     -0.347132   -0.003142   -1.245217
C      0.001185   -1.682701    0.832190
C     -3.633525   -1.037466    1.327222
C     -6.327836    0.104000   -0.522786
C      1.032243    3.233345   -1.021079
C      7.750482   -0.273730    0.163371
C      1.345863   -1.120720    0.723565
C     -5.020415   -0.545822   -0.712375
C      3.597372   -1.212010    1.758658
C      0.766966    0.819522   -0.579811
C     -1.486529    0.014724   -0.248744
C     -2.262649   -1.178529    1.816755
C      1.846652   -0.138423   -0.248515
C      4.102858   -0.603500    0.460385
C      6.412816    0.317891    0.407201
C      3.152633    0.521947    0.131099
C     -2.714543   -0.528580   -0.832717
C     -3.868613   -0.162726    0.126110
C     -1.140713   -0.752650    1.003160
N      5.444606   -0.401151    0.366618
N     -6.946883   -0.155469    0.790735
O      0.568355    3.446033    0.137385
O      4.343018   -2.403564    1.924157
O      6.360774    1.669265    0.668131
O      1.140575    1.902663   -1.403113
O     -1.433861   -0.167878    2.210221
H     -5.493738    2.028940   -1.222067
H     -7.169870    1.767716   -1.669236
H     -6.785073    2.179141   -0.005444
H      1.179635    4.144020   -2.978510
H      2.534770    4.554367   -1.799934
H      0.924113    5.262915   -1.536314
H      3.756675    2.263061   -1.007697
H      4.725480    0.831416   -1.353179
H      3.110211    0.862295   -2.044969
H      3.101147    2.528936    0.869147
H      3.640089    1.341765    2.123335
H      1.929262    1.365541    1.694306
H     -3.546099   -2.416388   -1.548601
H     -2.501490   -2.621127   -0.153349
H     -1.804279   -2.193309   -1.748553
H     -3.049288    1.296801    1.437753
H     -3.387315    1.975808   -0.148559
H     -4.720647    1.606234    0.999272
H     -8.654533    0.098837   -0.462616
H     -9.029778   -0.373910    1.210591
H     -8.502118    1.302154    0.926578
H     -7.102111   -2.091191   -0.043923
H     -6.330803   -2.028052    1.646819
H     -8.065859   -1.871893    1.411188
H     11.223640   -1.837551   -0.479191
H      9.169937   -3.251124   -0.537370
H     11.064229    0.577617   -0.010741
H      7.010252   -2.255432   -0.133474
H      8.798049    1.538843    0.397495
H     -5.282739    0.355495   -2.688295
H     -4.749400   -1.329300   -2.757860
H     -2.638814   -0.316043   -2.987111
H     -3.114467    1.188463   -2.125047
H      1.784566   -2.322805    2.329862
H     -0.019211   -0.996261   -1.539899
H     -0.665411    0.548297   -2.130100
H     -0.136014   -2.362489   -0.035781
H     -0.000088   -2.374636    1.718018
H     -4.291886   -0.662414    2.146595
H     -4.024098   -2.043785    1.058497
H     -7.035431   -0.414431   -1.239643
H     -5.189022   -1.656729   -0.537022
H      3.866912   -0.578887    2.604077
H      0.407909    1.281824    0.373734
H     -1.582929    1.079389    0.050309
H     -2.104078   -2.116404    2.433245
H      2.096857   -0.735507   -1.178986
H      3.830837   -1.422505   -0.309803
H      3.784113   -3.199706    1.893091
H      5.763413    2.060973    1.382350
