51

C      0.879128   -3.031754    1.247661
C     -5.772467    1.374445   -1.629413
C      7.517828    1.144373   -1.398841
C      8.126845    1.624083   -0.255796
C     -5.910301    0.828295   -0.217820
C     -4.567829    0.682289   -2.278693
C      6.190674    0.729820   -1.346554
C      7.403079    1.682521    0.921546
C      3.247497   -0.241108   -1.091579
C      2.008191   -0.556252   -0.723057
C     -5.354674   -0.564056   -0.119570
C     -3.531341    0.525413   -1.162397
C     -0.851886    0.111461    0.535063
C     -3.329409   -0.337432    1.013043
C     -1.927414   -0.578846    1.295484
C      5.454513    0.777455   -0.194236
C      6.092146    1.263974    0.940633
C      0.369573   -0.542798    1.250760
C      4.100177    0.328893   -0.195392
C      1.588092   -0.312933    0.539835
C     -1.484358   -1.996181    1.177363
Cl     5.171255    1.318972    2.422799
N     -0.064360   -1.930581    1.226689
N     -3.883184   -0.598890   -0.272296
O     -2.126423   -3.060150    1.059685
S      2.976782    0.392805    1.275667
H      1.894609   -2.691316    1.568997
H      0.961826   -3.520940    0.253861
H      0.607507   -3.820660    1.973940
H     -5.535838    2.451682   -1.536517
H     -6.677873    1.268160   -2.225885
H      8.079925    1.096797   -2.313393
H      9.157555    1.941461   -0.314928
H     -6.990117    0.763355    0.012447
H     -5.437224    1.476183    0.526855
H     -4.120474    1.426123   -2.973033
H     -4.827645   -0.265182   -2.759867
H      5.702689    0.350055   -2.238800
H      7.896650    2.064233    1.820803
H      3.657272   -0.419309   -2.135025
H      1.280072   -1.027332   -1.439771
H     -5.565479   -0.933782    0.908785
H     -5.847054   -1.276292   -0.808344
H     -3.623759    1.437234   -0.536777
H     -2.531934    0.425940   -1.579571
H     -0.820609    1.194266    0.606440
H     -0.713307   -0.286523   -0.513745
H     -3.930835   -0.920348    1.785252
H     -3.557560    0.734839    1.341600
H     -1.745679   -0.325151    2.392311
H      0.365145   -0.177312    2.265315
