92

C     -4.427276    1.217027    3.355102
C      4.941639   -0.516086   -3.094009
C     -4.099719    1.462903   -1.546088
C      2.674949    1.836831    0.657829
C     -5.107252    0.573082   -1.310357
C      3.878670    1.397481    1.147041
C     -2.356422    3.050115   -0.925869
C     -3.774106    1.769917    0.740004
C      3.246685    0.877679   -1.411158
C     -0.342806    0.597565    0.110332
C     -9.170865    0.303109   -0.656961
C     10.518383    0.678359    0.151612
C     -0.797584    1.641050   -2.348166
C     -3.395816    2.094316   -0.540136
C      2.344064    1.575291   -0.648060
C     -1.018171    2.636814   -1.214733
C     -0.086604    2.055437   -0.212780
C     -5.496272    0.239423   -0.000542
C      4.809972    0.684861    0.379777
C     -4.799636    0.864480    1.004823
C      4.484505    0.419470   -0.929258
C     -9.129753   -1.002941    0.101478
C      9.321935   -0.241434    0.103411
C     -8.531172   -2.053177   -0.789665
C      9.630598   -1.474428    0.924488
C     -7.981318   -3.213572   -0.005364
C      8.641397   -1.495708    2.081305
C     -7.133308   -2.753176    1.145806
C      7.255099   -1.586339    1.482905
C      1.102217    1.997677   -1.218827
C     -7.130234   -1.211258    1.253467
C      7.069548   -0.402366    0.515448
O      0.579366    0.110228    1.065125
O     -9.865200    1.223266    0.122245
O     11.653557    0.030881   -0.345918
O     -9.581996   -2.578912   -1.577061
O      9.446045   -2.653667    0.193930
O     -7.261519   -4.026396   -0.886356
O      8.817741   -0.295176    2.771785
O     -7.718678   -3.252345    2.311014
O      7.133727   -2.780171    0.808830
O     -5.135684    0.578666    2.315376
O      5.346716   -0.282075   -1.764692
O      0.510731    1.134285   -2.145504
O     -6.523502   -0.666736    0.173118
O      5.973102    0.288321    0.931653
O     -8.502727   -0.892297    1.319893
O      8.209022    0.433674    0.604601
H     -4.958871    1.073703    4.339549
H     -3.382639    0.850543    3.435096
H     -4.367478    2.320534    3.231189
H      4.787667    0.416208   -3.676010
H      3.948960   -1.053311   -3.131035
H      5.644682   -1.178567   -3.639241
H     -3.831572    1.691801   -2.581288
H      2.043776    2.381653    1.344955
H     -5.662611    0.075329   -2.113156
H      4.175489    1.590461    2.193161
H     -2.307767    3.834072   -0.096338
H     -2.704440    3.707974   -1.792470
H     -3.230822    2.256234    1.547853
H      3.046987    0.636519   -2.452945
H     -0.146441   -0.012913   -0.791807
H     -1.318935    0.429078    0.554720
H     -8.184301    0.656161   -0.977123
H     -9.775050    0.168720   -1.581534
H     10.373069    1.585150   -0.468690
H     10.768761    1.002914    1.167074
H     -0.810616    2.158967   -3.327351
H     -1.544111    0.851584   -2.366523
H     -0.452684    3.561900   -1.612704
H      0.148949    2.672372    0.648541
H    -10.186049   -1.286191    0.305946
H      9.099219   -0.508627   -0.949444
H     -7.796558   -1.646595   -1.522191
H     10.648464   -1.430252    1.370649
H     -8.854611   -3.849829    0.324517
H      8.853793   -2.346092    2.742937
H     -6.093988   -3.064052    1.004981
H      6.542007   -1.535293    2.326984
H      1.138079    3.001579   -1.691748
H     -6.735959   -0.974742    2.239525
H      7.101097   -0.818467   -0.488635
H      0.794558   -0.835207    0.895873
H     -9.218117    1.493407    0.848081
H     11.842491    0.267191   -1.283468
H     -9.510884   -2.332230   -2.515744
H      9.942284   -2.598413   -0.675330
H     -6.539804   -3.478383   -1.262149
H      8.592728   -0.364061    3.718567
H     -7.634325   -4.240725    2.261272
H      7.533524   -3.524047    1.293065
