53

C     -2.450767    1.602367    2.251407
C      2.364518    4.637820   -0.351102
C     -1.623468    0.451312    1.797848
C      2.778954   -3.190851    1.735687
C      3.934614   -2.461957    1.566440
C     -3.271446   -0.528882   -1.500077
C      1.584952   -2.711392    1.226266
C      3.971215   -1.260800    0.911413
C     -3.138006   -0.186614   -0.036992
C      0.737292   -1.428595   -1.684999
C     -2.102949   -1.276746   -2.056479
C     -0.229507   -2.563811   -1.586972
C     -1.315006    1.385953   -0.420309
C      0.160631    1.593353   -0.353965
C      1.567219   -1.489519    0.543449
C      2.737473   -0.803470    0.410400
C      0.998465    0.577161   -0.278978
C      0.659204    2.947022   -0.376036
C     -0.866133   -1.051584    0.035962
C     -1.720739    0.141569    0.323619
C      0.537123   -0.797669   -0.263753
N      2.402087    0.499423   -0.121102
N     -1.377847   -1.898057   -1.001385
O     -0.160388    3.898338   -0.448169
O      2.003244    3.272546   -0.322046
Cl     0.688229    0.000000    0.000000
H     -2.466703    1.549980    3.381212
H     -3.520465    1.544832    1.964314
H     -2.011116    2.599546    2.034113
H      2.596990    5.045951    0.653685
H      1.534752    5.238389   -0.772678
H      3.244178    4.718900   -1.042211
H     -1.949838   -0.445108    2.402269
H     -0.579616    0.638679    2.117938
H      2.770360   -4.120671    2.250160
H      4.871337   -2.845722    1.966696
H     -4.226939   -1.103689   -1.608871
H     -3.445946    0.405957   -2.082881
H      0.661195   -3.242221    1.347096
H      4.863556   -0.668341    0.764610
H     -3.771931    0.732322    0.116917
H     -3.541147   -1.048396    0.533421
H      0.512337   -0.703338   -2.461227
H      1.741378   -1.812159   -1.814579
H     -1.505619   -0.609616   -2.710982
H     -2.442482   -2.130025   -2.723433
H      0.135264   -3.348105   -0.914594
H     -0.507844   -2.980811   -2.583834
H     -1.590359    1.393860   -1.483350
H     -1.774922    2.285667    0.035325
H     -0.902848   -1.694268    0.971317
H      3.125695    1.241471   -0.340562
H     -0.688229    0.000000    0.000000
