47

C     -0.210949   -2.885632   -0.421927
C      5.037365   -0.987109   -0.024971
C     -3.920658    2.250750   -0.423122
C     -3.112018   -0.431906    0.075465
C     -2.131313   -1.542837    0.118024
C     -0.652092   -0.701118   -1.705190
C      0.380226    0.306971   -1.234231
C     -2.893102    0.602198    1.147088
C      2.403858   -0.568607    1.129264
C     -1.064629   -1.660139   -0.652660
C      3.776013   -1.442547   -0.657419
C      0.354794    0.588494    0.208006
C      1.708403    0.723601    0.883850
C     -0.182554    1.945929    0.582276
C     -1.459329    2.359817    0.052525
C      1.237319    1.358327    2.171870
C     -2.708078    1.931693    0.465670
N      2.627184   -1.237509   -0.113305
O      3.823846   -2.110094   -1.870952
O      1.889816    1.438106    3.260467
O     -0.055118    1.863397    2.002080
O     -2.256260    3.029480    1.148547
H      0.371232   -2.765985    0.532973
H      0.549515   -2.969810   -1.224820
H     -0.850445   -3.762209   -0.315586
H      5.256948   -1.593594    0.891242
H      5.898318   -1.055775   -0.688739
H      4.917975    0.065533    0.359109
H     -3.735466    1.857883   -1.456350
H     -4.834326    1.765854   -0.053780
H     -4.094294    3.334031   -0.514878
H     -4.136441   -0.904914    0.151145
H     -3.086843   -0.005646   -0.948320
H     -2.334350   -2.324935    0.867106
H     -0.154366   -1.319425   -2.511419
H     -1.512811   -0.239580   -2.208156
H      0.100887    1.266408   -1.765285
H      1.392751    0.075237   -1.647937
H     -3.868896    0.690928    1.713481
H     -2.147200    0.354471    1.891383
H      3.361347   -0.367841    1.602849
H      1.812249   -1.226214    1.802490
H     -0.142337   -0.248332    0.735479
H      2.370256    1.426511    0.350022
H      0.634307    2.674929    0.287418
H     -1.403397    3.053419   -0.845850
H      3.042666   -2.612208   -2.274511
