52

C      4.598786    1.267473    0.975902
C     -3.415419    1.600974   -0.820126
C     -2.866943    1.156435    1.499033
C     -0.349813   -0.611417    1.694922
C     -2.719368   -1.905650    0.402662
C      3.003036   -1.603728    0.155542
C      1.596734   -1.949353   -0.181278
C     -0.558916    1.745678   -0.439695
C     -3.468399   -0.684127   -0.007599
C     -1.308820   -1.973342   -0.072731
C      0.567538    1.480289   -1.452490
C      2.131488    1.099316    0.376437
C      2.653451    0.094777   -1.675027
C      3.592688    0.711315    0.340831
C      3.597366   -0.458471   -0.595641
C     -1.340847    0.433135   -0.372995
C      0.733958   -0.794941   -0.575987
C     -2.723105    0.598226    0.120655
C     -0.543541   -0.674796    0.237563
C      1.470637    0.479284   -0.770043
H      4.481792    2.104831    1.624698
H      5.585982    0.860712    0.835972
H     -4.502105    1.365662   -0.874531
H     -3.364128    2.626068   -0.366510
H     -2.959158    1.571323   -1.825591
H     -3.899015    1.619489    1.549624
H     -2.180109    2.012295    1.694934
H     -2.864182    0.400239    2.303409
H     -1.121861   -1.246806    2.226007
H     -0.470957    0.395159    2.155510
H      0.616924   -1.063539    2.032008
H     -3.253124   -2.784077   -0.066441
H     -2.844256   -2.055077    1.495923
H      3.066751   -1.458688    1.273091
H      3.674543   -2.493078   -0.028283
H      1.647385   -2.756313   -0.974286
H      1.158315   -2.506144    0.700278
H     -1.223943    2.526370   -0.818119
H     -0.091417    1.990018    0.528206
H     -4.417868   -0.646590    0.558898
H     -3.766247   -0.812311   -1.082790
H     -0.826127   -2.847559    0.375544
H     -1.316595   -2.048265   -1.173531
H      0.167059    1.012071   -2.367751
H      1.157535    2.386556   -1.646769
H      2.155182    2.219276    0.213457
H      1.718571    0.954901    1.365048
H      2.403621   -0.735228   -2.333445
H      3.120711    0.960103   -2.133597
H      4.603365   -0.652716   -1.003198
H     -1.445254    0.140530   -1.465483
H      0.338099   -1.050286   -1.612220
