47

C     -1.160719   -2.900188    0.078265
C      5.316646   -1.139404   -1.289251
C     -3.494585    1.724263   -2.283918
C     -3.854260   -0.221464    0.688433
C     -3.092052   -1.359572    0.188638
C     -1.246891   -0.942586    1.693793
C      0.183013   -0.706842    1.322449
C     -3.477665    1.127998    0.168401
C      2.874781   -0.114664   -0.194738
C     -1.907400   -1.728094    0.615909
C      5.252295    0.097459   -0.482164
C      0.421019    0.225914    0.197736
C      1.809234    0.800951    0.342889
C     -0.450732    1.410178    0.092555
C     -1.322042    1.327063   -1.108666
C      1.698683    2.068576   -0.384623
C     -2.695010    1.172002   -1.082799
N      4.152967    0.542111   -0.000151
O      6.419963    0.803234   -0.236351
O      2.598287    2.577819   -1.096000
O      0.438665    2.530564   -0.108236
O     -1.904838    0.056010   -1.443966
H     -0.526247   -2.523042   -0.755802
H     -1.853421   -3.657969   -0.358856
H     -0.581371   -3.393074    0.866009
H      6.266035   -1.180563   -1.842748
H      4.449339   -1.205097   -1.975830
H      5.274950   -2.009043   -0.603691
H     -2.829057    1.855862   -3.157096
H     -3.828609    2.736168   -1.974714
H     -4.342776    1.040496   -2.499302
H     -3.806838   -0.218815    1.819948
H     -4.949453   -0.453326    0.510145
H     -3.510213   -1.991549   -0.618403
H     -1.231508   -1.634678    2.587344
H     -1.789324   -0.059971    2.013402
H      0.614199   -1.702608    1.040783
H      0.735525   -0.395329    2.233668
H     -2.987903    1.743449    0.984357
H     -4.462401    1.689133    0.066421
H      2.742503   -0.335030   -1.266500
H      2.881362   -1.028343    0.429153
H      0.416197   -0.316075   -0.785024
H      2.004606    0.962395    1.415750
H     -0.974076    1.685754    1.030187
H     -0.832094    1.712943   -2.054211
H      6.561218    1.326983    0.628813
