53

C     -3.215495   -2.225011   -1.124815
C     -3.485295   -1.256608    0.974983
C      5.489689   -2.942573   -0.356606
C      0.090398    5.349331   -0.216231
C      2.847819    2.471055    1.394529
C      1.350288   -3.039083    0.350011
C      2.707170   -3.046999    0.121049
C     -3.191162    1.366585   -0.298956
C     -3.513578    0.082334   -0.968086
C     -0.820794   -1.858728    0.707406
C     -1.143482    2.785016   -0.227433
C      0.653332   -1.871133    0.371645
C     -1.717427    1.531865   -0.233045
C     -1.459228   -0.940934   -0.285859
C      3.307967   -1.842509   -0.083715
C      0.207513    2.913171   -0.146629
C     -0.923790    0.421751   -0.163942
C      1.279538   -0.629379    0.160459
C      0.481753    0.555629   -0.081646
C      2.634234   -0.611919   -0.076018
C      1.044160    1.788713   -0.065862
N     -2.888212   -1.056019   -0.326336
O      3.366757    0.488231   -0.321164
O      4.674603   -1.813304   -0.316416
O      0.848335    4.152783   -0.138448
O      2.377839    2.065059    0.045306
Cl     0.689158    0.000000    0.000000
H     -3.037146   -3.165498   -0.587054
H     -2.622760   -2.137292   -2.068399
H     -4.291273   -2.202791   -1.446654
H     -4.593972   -1.322967    0.797143
H     -3.309392   -0.423969    1.665530
H     -3.193000   -2.210037    1.436048
H      5.868892   -3.258479    0.647098
H      4.991603   -3.736648   -0.911922
H      6.402807   -2.665752   -0.960139
H      0.722367    6.174616    0.180882
H     -0.245897    5.570896   -1.246706
H     -0.791515    5.270309    0.457492
H      3.923592    2.648500    1.240583
H      2.364218    3.396999    1.694448
H      2.729426    1.613976    2.071312
H      0.838111   -3.995006    0.515506
H      3.244802   -3.987178    0.111894
H     -3.666565    2.188871   -0.884348
H     -3.558917    1.380367    0.747404
H     -4.611551   -0.078555   -0.909773
H     -3.271340    0.135648   -2.049928
H     -0.875182   -1.457056    1.759359
H     -1.160571   -2.894830    0.635202
H     -1.778906    3.637655   -0.288208
H     -1.080759   -1.319102   -1.300953
H     -0.689158    0.000000    0.000000
