53

C     -2.382907   -2.398955    2.017001
C     -3.204175   -2.414286   -0.161156
C      4.944566   -1.553274   -3.530109
C      0.294771    4.433967    2.900505
C      1.979563    3.414466   -0.908641
C      1.011159   -2.160743   -2.371703
C      2.319720   -1.924450   -2.730898
C     -2.652585    0.360889    2.232814
C     -3.317729   -0.463833    1.125962
C     -1.054638   -1.518008   -1.165377
C     -0.806933    2.028749    2.065255
C      0.401759   -1.311688   -1.501767
C     -1.363231    0.838589    1.662254
C     -1.185365   -1.251565    0.305020
C      3.016553   -0.860930   -2.231209
C      0.370965    2.468020    1.526525
C     -0.713161    0.090975    0.710931
C      1.083581   -0.207337   -0.966528
C      0.510741    0.542015    0.149764
C      2.385081    0.015693   -1.326343
C      1.042403    1.721248    0.549926
N     -2.477389   -1.583088    0.794170
O      3.167923    1.008630   -0.881696
O      4.333767   -0.659496   -2.621104
O      0.952015    3.665843    1.919572
O      2.182206    2.315663    0.098585
Cl     0.688701    0.000000    0.000000
H     -2.211143   -3.458890    1.720501
H     -1.540249   -2.057898    2.645270
H     -3.309008   -2.267748    2.599093
H     -2.733440   -3.416733   -0.190530
H     -3.217196   -1.977892   -1.161943
H     -4.249350   -2.472922    0.246281
H      5.929669   -1.205703   -3.864018
H      4.317901   -1.716697   -4.446022
H      5.100158   -2.547612   -3.038560
H     -0.741550    4.656200    2.556470
H      0.872958    5.357285    3.123767
H      0.261896    3.852872    3.833450
H      1.365715    2.914613   -1.679128
H      1.405686    4.188568   -0.404288
H      2.944162    3.706343   -1.310249
H      0.467126   -3.011222   -2.773445
H      2.788917   -2.601808   -3.422537
H     -3.289814    1.230981    2.438241
H     -2.492019   -0.272598    3.124381
H     -3.535004    0.196903    0.272919
H     -4.247845   -0.871656    1.577522
H     -1.646082   -0.826168   -1.765732
H     -1.281507   -2.580062   -1.345641
H     -1.326063    2.599790    2.815377
H     -0.472582   -2.015040    0.787067
H     -0.688701    0.000000    0.000000
