83

C      4.912311   -1.799619    2.264400
C     -3.025043   -5.868695   -0.605595
C     -6.669060   -1.753542    1.093346
C      6.222579    2.517930   -1.657453
C      0.271394    3.012377   -1.915010
C     -1.097478    4.158575   -0.435062
C      1.378258    3.201713   -1.022229
C      0.005114    4.340133    0.444800
C      0.276334   -4.217411    1.069258
C     -0.836099   -4.776881    0.502755
C     -6.105022    2.548798   -1.134997
C      4.618820   -2.064043   -0.746672
C     -5.571081    3.893644   -1.391221
C      4.815700   -3.084324    0.331432
C     -2.137724    3.293292   -2.587852
C      1.779150   -2.547556    1.905492
C     -0.533726   -1.964656    0.835735
C     -5.599791    0.394323   -0.226777
C      4.907118    0.352263   -0.692687
C     -2.945813    0.422619   -1.191004
C      2.444868    4.047918    1.065694
C     -0.976428    3.488911   -1.627641
C      1.261130    3.863847    0.166049
C      0.445467   -2.826418    1.243725
C     -5.073313    1.521159   -0.908495
C      4.237750   -0.711478   -0.185484
C     -3.759562    1.525199   -1.377217
C     -3.416349    2.850060   -1.916142
C      2.834967   -2.064984    1.027954
C     -1.798904   -3.904687    0.103472
C     -4.770781   -0.660253   -0.062150
C     -1.682187   -2.488371    0.254809
C     -3.445907   -0.697333   -0.520990
C      4.524887    1.562166   -0.146654
C      3.218979   -0.630239    0.827116
C      2.844809    0.571155    1.362448
C      3.542352    1.699702    0.834566
N     -4.265564    3.847077   -1.911657
N      4.089412   -2.686439    1.509824
O      1.877102    0.811098    2.353698
O     -2.939488   -4.482142   -0.477404
O     -5.358140   -1.757581    0.626405
O      5.236347    2.672798   -0.675984
O      3.396960    3.032137    1.162487
O     -2.802499   -1.874325   -0.234422
H      6.008417   -1.899396    1.982309
H      4.690596   -0.740688    2.212929
H      4.914229   -2.189317    3.327880
H     -2.228894   -6.274213   -1.279270
H     -2.946265   -6.428468    0.349477
H     -3.988470   -6.127261   -1.131541
H     -7.422802   -1.594106    0.292607
H     -6.879616   -2.755822    1.515702
H     -6.775688   -1.017977    1.913270
H      6.633302    3.494360   -1.962900
H      7.099347    1.922947   -1.284679
H      5.790116    2.015195   -2.557945
H      0.685606    2.442679   -2.815046
H     -2.003055    4.682899    0.032300
H      2.274104    2.724243   -1.547173
H     -0.382276    4.939552    1.341705
H      1.061216   -4.925130    1.388376
H     -0.921619   -5.857842    0.393807
H     -6.731138    2.256891   -2.033066
H     -6.800694    2.567712   -0.240241
H      3.881004   -2.441177   -1.471364
H      5.545702   -1.899982   -1.341428
H     -5.590064    4.560574   -0.482562
H     -6.194851    4.457369   -2.174992
H      4.632208   -4.114821    0.043848
H      5.914845   -3.041387    0.598051
H     -2.341413    4.154805   -3.247716
H     -1.978911    2.509752   -3.386907
H      2.196032   -3.527034    2.355654
H      1.676256   -2.000506    2.897400
H     -0.448761   -0.830580    0.940441
H     -6.628050    0.420887    0.131545
H      5.678692    0.285197   -1.458905
H     -1.874557    0.340257   -1.579570
H      3.039770    4.982421    0.884212
H      2.194717    4.207072    2.165819
H      2.637724   -2.571112    0.036243
H      1.251388    0.504089    2.928314
