92

C      3.507960    4.436213    0.749334
C     -5.048042   -1.468709    1.191743
C      6.674725   -4.185822   -2.107281
C     -5.508227    3.730191   -2.685601
C      2.695320   -0.948017    4.612791
C     -1.703317    0.021333    3.915535
C     -2.795868    3.895814    0.830641
C     -0.678405   -1.813371   -1.579637
C     -0.024044   -3.701957   -0.302495
C      5.714620   -0.540684   -0.581985
C      0.598112   -1.885705   -2.202416
C      1.256941   -3.739860   -0.956391
C      6.050826   -1.761004   -1.109957
C     -5.257402   -1.359602   -2.051625
C      0.993772    2.204840   -0.722279
C     -5.534980   -2.385260   -0.985276
C      1.572270    3.491783   -0.071830
C     -2.251022   -2.592493    0.244513
C      4.396131    1.351923    0.023081
C      3.443201   -0.668139   -1.317172
C     -4.864815    1.043420   -1.934744
C      2.274654    0.524700    2.255860
C     -0.978182   -2.741977   -0.607591
C      4.436924    0.049476   -0.656264
C     -4.470244   -0.186805   -1.517015
C      1.527889   -2.831656   -1.872838
C      0.803480    1.307020    0.457738
C      2.078528    1.241097    1.092855
C      3.265333    2.027677    0.637258
C     -3.317526   -1.896189   -0.445386
C      5.012795   -2.429182   -1.756186
C      3.767333   -1.871161   -1.829492
C     -4.125467    2.082242   -1.444342
C      1.251814   -0.150210    2.856453
C     -3.381245   -0.455710   -0.638097
C     -0.240073    0.637368    1.037436
C      0.035983   -0.070660    2.235082
C     -3.042137    1.852243   -0.573765
C     -2.611730    0.606268   -0.127310
N      2.971867    3.288844   -0.004619
N     -4.632996   -2.324053    0.110091
O      5.403494   -3.692435   -2.298826
O     -4.481790    3.361842   -1.838728
O      1.409152   -0.884765    4.026584
O     -0.970537   -0.781554    2.950477
O     -2.459872    3.062722   -0.221602
O      2.833381   -2.774739   -2.529528
O     -1.569983    0.490968    0.701144
H      3.725766    4.138432    1.796652
H      4.398508    4.797194    0.252245
H      2.744444    5.236813    0.782143
H     -4.214136   -1.451793    1.944511
H     -5.916165   -1.918295    1.668865
H     -5.212507   -0.441816    0.812497
H      6.914469   -4.307330   -1.033094
H      6.697823   -5.218377   -2.534742
H      7.476297   -3.592369   -2.605022
H     -5.111808    4.600273   -3.300333
H     -5.849072    2.988429   -3.405815
H     -6.341057    4.166310   -2.098945
H      3.020956    0.084921    4.854966
H      3.417181   -1.494531    3.983245
H      2.651029   -1.472731    5.597325
H     -2.459638    0.586275    3.288893
H     -1.062222    0.822619    4.336229
H     -2.260159   -0.571640    4.629150
H     -2.106334    3.722479    1.678327
H     -3.870165    3.795676    1.096852
H     -2.694076    4.955733    0.461619
H     -1.234697   -0.949745   -2.032875
H      0.001583   -4.566624    0.400581
H      6.514451    0.032617   -0.071596
H      0.647898   -1.081706   -2.986972
H      1.894958   -4.618417   -0.585894
H      7.045166   -2.170606   -1.029989
H     -4.755208   -1.835626   -2.890848
H     -6.240854   -0.969076   -2.381058
H      1.861175    1.883143   -1.366138
H      0.187249    2.575905   -1.291942
H     -6.563588   -2.306887   -0.608217
H     -5.427238   -3.410381   -1.433165
H      1.353889    4.377675   -0.737935
H      1.052995    3.622763    0.878860
H     -2.052920   -2.035450    1.192229
H     -2.633566   -3.565403    0.681848
H      4.907299    2.155191   -0.631562
H      5.229126    1.317313    0.859552
H      2.420154   -0.184743   -1.460388
H     -5.720880    1.175199   -2.609847
H      3.260061    0.456248    2.752750
H      3.623954    2.473637    1.691003
H     -3.348744   -2.367568   -1.502305
