80

C     -4.437404    0.592954    2.459479
C      0.452968   -3.730779   -3.655402
C      5.524655   -3.710830    1.854683
C      1.160235    2.550257   -1.649775
C      1.370233    2.198511    0.652310
C     -1.712693   -2.122028   -0.586499
C     -0.160541    2.031705   -1.618641
C      0.051298    1.686900    0.653473
C     -1.005060   -2.662348   -1.625550
C      6.461375    1.166192    1.122675
C     -6.144680   -1.273365    0.515517
C      5.894251    2.337598    1.865604
C     -5.691536   -1.387919    1.939172
C      3.341539    3.159144   -0.518107
C     -2.194833   -1.084631    1.492614
C      0.228570   -1.711503    0.771367
C      5.416250   -1.062585    1.132266
C     -6.128810    0.684136   -0.986478
C      3.249289   -0.046848   -0.445694
C     -4.793289    3.198935   -3.165684
C      1.934155    2.635873   -0.517834
C     -1.136572   -1.641951    0.612814
C      5.323056    0.247805    0.752239
C     -5.392744   -0.150185   -0.185263
C     -0.752116    1.583710   -0.458144
C      4.247515    0.773347   -0.029950
C      4.429511    2.255411   -0.075389
C     -3.575228   -1.105698    0.964912
C      0.361180   -2.715909   -1.441503
C      4.375358   -1.862053    0.699332
C      0.953689   -2.247739   -0.274084
C      3.328197   -1.367318   -0.060664
C     -5.449676    1.686355   -1.623868
C     -4.030317   -0.064283    0.031827
C     -4.102824    1.799050   -1.431936
C     -3.311027    0.946339   -0.605409
N      4.609760    2.634513    1.359542
N     -4.414283   -0.807987    2.186688
O      1.104961   -3.274815   -2.507580
O      4.457145   -3.221681    1.086389
O     -5.941163    2.664127   -2.485861
O     -3.771560    2.922038   -2.235513
O     -2.006447    1.097893   -0.458307
O      2.368202   -2.392157   -0.352798
H     -5.365962    0.781198    3.074585
H     -3.582774    0.809420    3.165679
H     -4.389753    1.240241    1.584262
H      1.229389   -4.209559   -4.308886
H     -0.316718   -4.517966   -3.429490
H     -0.074518   -2.919009   -4.201920
H      5.530236   -4.802254    1.934269
H      5.603922   -3.206275    2.856708
H      6.467651   -3.431862    1.298934
H      1.363817    2.836087   -2.726673
H      1.762953    2.161415    1.727455
H     -2.792030   -2.079437   -0.769869
H     -0.625443    2.041355   -2.654180
H     -0.241686    1.381369    1.699990
H     -1.474727   -3.025207   -2.532309
H      6.943771    1.481653    0.173681
H      7.139921    0.593401    1.768524
H     -7.232768   -1.110133    0.417917
H     -5.883606   -2.191396   -0.048985
H      6.564459    3.204272    1.665441
H      5.817097    2.142882    2.959848
H     -5.672841   -2.453313    2.223172
H     -6.457849   -0.910128    2.604361
H      3.729022    3.506608   -1.534711
H      3.480304    4.145260    0.015133
H     -2.078861   -0.044656    1.863104
H     -2.300241   -1.678050    2.476402
H      0.761659   -1.393300    1.730835
H      6.236296   -1.455543    1.726119
H     -7.198130    0.585309   -1.132105
H      2.436108    0.288749   -1.166747
H     -4.890375    4.302078   -3.223844
H     -4.643473    2.708602   -4.134146
H      5.370724    2.559235   -0.537897
H     -3.954477   -2.118887    0.718860
H      4.248313    3.569657    1.559513
