82

C     -6.873230   -2.369108   -1.435478
C      3.611412    1.175245    1.273250
C     -4.720114    4.804632    0.508001
C     -0.685315   -1.844561    1.266605
C     -1.103963   -2.824436   -0.811675
C      2.525702    2.979809   -1.448199
C      0.699218   -1.709610    0.891598
C      0.275625   -2.672459   -1.143694
C      1.815564    4.085407   -1.081992
C      6.516574    0.708452   -0.244971
C     -5.787424    0.159250    1.711928
C      5.637055    1.778135    0.313373
C     -6.313324   -1.093241    1.057226
C     -3.017571   -2.564547    0.809241
C      3.025580    0.757300   -2.029043
C      0.577057    1.577253   -1.565983
C     -4.658817    2.134805    0.827460
C      6.554184   -1.735655    0.317937
C     -2.523526    0.562455   -0.179081
C      5.162239   -4.928485    1.193479
C     -5.461828   -2.232563   -0.940889
C     -1.586500   -2.411610    0.397066
C      1.939287    1.707726   -1.697349
C     -4.633618    0.776402    0.994266
C      5.853766   -0.659403   -0.145665
C      1.203382   -2.111649   -0.292859
C     -3.556904   -0.024499    0.489272
C     -3.888909   -1.420158    0.904688
C      4.111385    0.635217   -1.025915
C      0.461288    3.906108   -0.960556
C     -0.183505    2.678888   -1.191196
C     -3.607007    2.693929    0.156742
C     -2.525812    1.935784   -0.356654
C      5.849873   -2.929222    0.433442
C      4.515704   -0.662073   -0.506079
C      4.523784   -2.989318    0.095669
C      3.792443   -1.868359   -0.384343
N      4.198822    1.567445    0.039647
N     -5.186461   -1.621165    0.293537
O     -4.579218   -2.695449   -1.698819
O     -0.263814    5.060998   -0.581861
O     -3.638510    4.082377   -0.010501
O      6.342436   -4.181907    0.882160
O      4.192959   -4.346115    0.349596
O      2.522213   -2.006851   -0.672295
O     -1.568979    2.731263   -0.998489
H     -7.483178   -2.690944   -0.551797
H     -6.927286   -3.109625   -2.232894
H     -7.288822   -1.412579   -1.773766
H      3.635019    2.061858    1.958373
H      4.269800    0.412813    1.768308
H      2.559202    0.848540    1.222357
H     -4.662646    5.881835    0.285685
H     -4.745699    4.609765    1.610768
H     -5.713117    4.439419    0.121192
H     -0.776057   -1.401301    2.299314
H     -1.578880   -3.290245   -1.728649
H      3.610427    3.139634   -1.554645
H      1.238437   -1.211761    1.763233
H      0.487052   -3.070135   -2.176806
H      2.290772    5.049122   -0.897524
H      6.932045    0.885097   -1.246032
H      7.431305    0.692199    0.426374
H     -5.540873   -0.025055    2.790571
H     -6.631087    0.874167    1.727457
H      5.792681    1.985355    1.373417
H      5.858953    2.749187   -0.220981
H     -6.531603   -1.833475    1.847041
H     -7.221514   -0.944021    0.465091
H     -3.144579   -3.190511    1.774172
H     -3.530112   -3.307412    0.138629
H      2.863036   -0.244813   -2.404528
H      3.458442    1.230021   -2.998783
H      0.072030    0.584485   -1.805031
H     -5.489655    2.735405    1.218422
H      7.603565   -1.681971    0.589062
H     -1.698306   -0.082143   -0.627688
H      4.944771   -4.835071    2.259865
H      5.310957   -5.964396    0.849205
H     -4.144712   -1.369106    2.051781
H      5.002379    0.979994   -1.700520
H      0.204049    5.909232   -0.423272
