85

C      6.460598   -1.918748    3.972701
C     -3.775586   -0.382796    1.611494
C     -0.849501    6.133511    1.110391
C      4.681808    3.905027   -2.403999
C      0.920983   -3.002613    0.850496
C      1.536049   -1.540137   -0.867003
C     -2.884299    3.090696   -0.672296
C     -0.345543   -3.156629    0.228243
C      0.284236   -1.707999   -1.460163
C     -2.200806    4.114175   -0.072761
C     -6.145160   -0.243962   -0.751897
C      5.793886    0.002549    0.325260
C     -5.424441    0.588242    0.241940
C      6.002350   -0.108522    1.831599
C      3.276545   -2.053370    0.897883
C     -3.295259    0.990775   -1.749312
C     -0.894899    1.903852   -1.313910
C      4.561815    1.802613   -0.692132
C     -6.033285   -2.562268   -1.457398
C      2.161221    1.104509    0.683565
C     -4.749019   -5.883637   -1.937444
C      5.138661   -1.793466    3.343815
C      1.891857   -2.185719    0.302770
C     -2.256148    1.987972   -1.289976
C      4.513921    0.739658    0.173542
C     -5.289367   -1.426743   -1.119469
C     -0.696405   -2.527677   -0.925753
C      3.330483    0.375536    0.867508
C      3.557716   -0.833524    1.716008
C     -3.315925   -0.120412   -0.730644
C     -0.836746    4.016555   -0.097159
C      3.409074    2.511157   -0.866770
C     -0.185377    2.927828   -0.704936
C      2.220527    2.168324   -0.189610
C     -5.386030   -3.717851   -1.812105
C     -3.915725   -1.385832   -1.117312
C     -4.022247   -3.698792   -1.815860
C     -3.237501   -2.559104   -1.476272
N     -4.040517    0.372420    0.429761
N      4.912183   -0.896467    2.284129
O      4.208122   -2.504836    3.771742
O     -0.152972    5.071060    0.519782
O      3.489999    3.595100   -1.758737
O     -5.839533   -4.988043   -2.193643
O     -3.668962   -5.007019   -2.215436
O     -1.911244   -2.690678   -1.522855
O      1.200576    3.062561   -0.570330
H      6.777419   -0.993781    4.500890
H      6.494205   -2.808212    4.661957
H      7.249061   -2.153244    3.200663
H     -3.439678    0.218511    2.483040
H     -2.960871   -1.122810    1.380173
H     -4.672546   -0.968237    1.960966
H     -0.173064    6.855248    1.597338
H     -1.438296    6.701444    0.339527
H     -1.578987    5.800496    1.877755
H      5.496885    4.221214   -1.696742
H      4.544191    4.685636   -3.180919
H      5.126289    3.028383   -2.948781
H      0.912001   -3.616493    1.800370
H      2.089937   -0.785222   -1.509755
H     -3.983952    3.176182   -0.648675
H     -0.980533   -3.880566    0.841055
H      0.143052   -1.127345   -2.431618
H     -2.717682    4.952441    0.394367
H     -6.390567    0.323725   -1.696842
H     -7.128957   -0.605119   -0.351156
H      6.648354    0.637554   -0.009104
H      5.893605   -0.920293   -0.219857
H     -5.911808    0.386686    1.244659
H     -5.690956    1.661634    0.059860
H      6.990419   -0.548622    1.972801
H      5.989158    0.927249    2.229847
H      3.616921   -2.872793    1.577378
H      4.012951   -2.233985    0.055628
H     -3.263987    0.685531   -2.798731
H     -4.334893    1.421005   -1.683453
H     -0.323756    1.075107   -1.847079
H      5.484618    2.040137   -1.196229
H     -7.120796   -2.571401   -1.451982
H      1.193199    0.854985    1.225368
H     -4.757990   -6.765986   -2.578118
H     -4.731180   -6.127870   -0.842454
H      2.985674   -0.894807    2.682604
H     -2.247555   -0.223663   -0.372197
