90

C      6.000721   -1.951727    3.813374
C     -3.700659    0.246546    1.957525
C      0.590411    4.636026   -2.222286
C      9.111469   -1.214517   -2.998022
C     -9.886945   -3.261286    1.363599
C     -9.665116    1.734698   -0.927276
C      3.682447    1.460293    0.057869
C      2.409560    0.027497    1.432383
C     -3.017723    2.537824   -1.927177
C      2.726833    1.354705   -0.964486
C      1.470538   -0.077934    0.432139
C     -1.823358    3.214793   -2.022550
C      6.159201   -2.515834    0.768272
C     -4.859696   -2.246278    1.021173
C      5.019643   -2.366815    1.715333
C     -3.601425   -1.625252    0.504452
C      4.537812    0.922967    2.336716
C     -4.296892    0.450369   -1.661242
C     -1.781127    0.474899   -1.713565
C      7.529390   -1.195672   -0.743065
C     -7.323996   -2.078900    0.883170
C      7.079124    1.075202    0.668639
C     -7.155741    0.406400   -0.252944
C      3.557623    0.813783    1.263943
C     -2.972217    1.161976   -1.772402
C      6.719303   -1.216901    0.401610
C     -6.073851   -1.485072    0.641595
C      1.611310    0.586580   -0.790779
C      6.484482   -0.077410    1.122163
C     -5.955039   -0.250955    0.078360
C      5.647542   -0.099730    2.321985
C     -4.661481    0.413447   -0.189709
C      7.879927    1.132171   -0.450570
C     -0.610978    2.511684   -1.961898
C      8.104914   -0.030678   -1.165607
C     -8.489879   -1.433653    0.558514
C     -8.378868   -0.178727   -0.014566
C     -0.555332    1.157480   -1.809562
N      5.207585   -1.397040    2.735467
N     -3.633716   -0.178532    0.592816
O      8.466773    2.318934   -0.881441
O      0.553280    3.245616   -2.063089
O      8.921688    0.007137   -2.314356
O     -9.744409   -1.984271    0.780530
O     -9.542505    0.475592   -0.343265
O      0.626143    0.434353   -1.745386
H      5.369333   -2.139184    4.708870
H      6.732913   -1.165983    4.108104
H      6.488070   -2.902602    3.519059
H     -4.231975    1.198804    2.115479
H     -2.680972    0.387917    2.415527
H     -4.159362   -0.569626    2.577557
H      0.303591    5.179615   -1.318912
H     -0.000382    4.994935   -3.084842
H      1.652590    4.921452   -2.445459
H      9.693167   -1.084881   -3.926338
H      8.160641   -1.711952   -3.266306
H      9.674992   -1.954180   -2.366796
H     -9.420732   -4.042150    0.731867
H     -9.342938   -3.283957    2.343485
H    -10.964350   -3.492902    1.487167
H     -9.584978    2.497808   -0.102843
H    -10.582869    1.859323   -1.527168
H     -8.815955    1.863597   -1.654933
H      4.533724    2.089565   -0.151987
H      2.295764   -0.489127    2.377414
H     -3.979468    3.034794   -1.967882
H      2.862933    1.869676   -1.902237
H      0.576445   -0.679169    0.540469
H     -1.849776    4.294476   -2.144673
H      5.814954   -3.035513   -0.164869
H      6.961039   -3.132593    1.219152
H     -4.988271   -3.268030    0.557100
H     -4.839742   -2.434849    2.109492
H      4.102881   -2.267550    1.115554
H      4.910290   -3.359497    2.234844
H     -2.771326   -1.958116    1.179079
H     -3.335562   -1.965929   -0.512053
H      5.034743    1.922199    2.379146
H      4.056893    0.822894    3.354033
H     -5.022135    0.998635   -2.259276
H     -4.130231   -0.568668   -2.012381
H     -1.736175   -0.590845   -1.596546
H      7.700366   -2.120149   -1.299314
H     -7.380943   -3.072938    1.337744
H      6.896616    1.979518    1.235809
H     -7.050161    1.377928   -0.696459
H      6.339496    0.246938    3.165524
H     -4.705209    1.500480    0.118147
H      9.045303    2.316048   -1.705713
