90

C      7.270161   -2.817773    2.986942
C     -3.891425   -0.344909   -5.132228
C     -1.242316   -1.642697    3.195482
C      6.117215    4.550892   -0.749768
C     -8.564431   -0.134405    1.693894
C     -6.808331    4.492920   -0.779570
C      2.724266   -0.976506    1.287615
C      3.145504   -3.245931    0.826777
C     -2.763952    0.812061   -0.026003
C      1.512260   -1.057182    0.607411
C      1.940104   -3.335509    0.147330
C     -2.302508    0.052864    1.026060
C      6.194016    0.722980    2.882163
C     -5.016139   -1.651438   -1.789971
C      6.875067   -0.511491    3.365964
C     -4.742693   -1.563916   -3.250006
C      4.795142   -1.972713    2.145138
C     -2.858753    1.375698   -2.472497
C     -1.477858   -0.486368   -1.535633
C      6.113510    2.017076    0.704798
C     -6.571301   -0.289199   -0.362233
C      5.955080   -0.298323   -0.692551
C     -5.709770    1.994877   -1.578003
C      3.554306   -2.073289    1.405389
C     -2.367339    0.561137   -1.307447
C      6.104742    0.821032    1.393965
C     -5.620720   -0.363229   -1.342021
C      1.123517   -2.244378    0.038434
C      6.024401   -0.349318    0.678410
C     -5.174316    0.761480   -1.963638
C      6.031531   -1.629989    1.398036
C     -4.155723    0.763545   -3.020643
C      5.964077    0.898999   -1.388368
C     -1.423351   -0.987744    0.823875
C      6.045245    2.073444   -0.669372
C     -7.093188    0.922321    0.012879
C     -6.662850    2.095545   -0.599217
C     -1.014965   -1.245223   -0.493084
N      7.131336   -1.513300    2.373029
N     -3.963588   -0.464954   -3.689940
O      5.894856    0.953668   -2.769695
O     -0.928163   -1.780569    1.826370
O      6.057271    3.289468   -1.335439
O     -8.045886    0.972310    1.000627
O     -7.228948    3.292241   -0.176137
O     -0.115913   -2.318346   -0.643291
H      6.897553   -3.596565    2.278813
H      8.320301   -3.050226    3.263102
H      6.592766   -2.829195    3.860219
H     -3.654768    0.743623   -5.329955
H     -2.984338   -0.882225   -5.475185
H     -4.787645   -0.677107   -5.659418
H     -0.804601   -0.688880    3.609853
H     -0.667741   -2.443843    3.738890
H     -2.307799   -1.660122    3.423740
H      5.087852    4.835170   -0.428827
H      6.552675    5.284635   -1.458976
H      6.776556    4.482403    0.161589
H     -7.818455   -0.582834    2.410437
H     -9.486261    0.207291    2.242023
H     -8.911731   -0.862261    0.955920
H     -7.382935    5.353067   -0.332482
H     -6.961453    4.468612   -1.878823
H     -5.720917    4.642044   -0.547541
H      2.992003   -0.027865    1.719582
H      3.748135   -4.127168    0.881867
H     -3.451954    1.621764    0.174400
H      0.859724   -0.202746    0.505008
H      1.623004   -4.264804   -0.306551
H     -2.619438    0.250374    2.061482
H      6.867367    1.587127    3.171810
H      5.236120    0.964526    3.384866
H     -5.764638   -2.432309   -1.543459
H     -4.044798   -1.834565   -1.272854
H      7.876878   -0.301518    3.847120
H      6.310231   -1.015599    4.205106
H     -5.746283   -1.485379   -3.764609
H     -4.340038   -2.556744   -3.569236
H      4.659646   -1.320888    3.065076
H      4.973751   -2.991394    2.615547
H     -2.075483    1.300587   -3.251605
H     -3.062699    2.407983   -2.140590
H     -1.135115   -0.719097   -2.552860
H      6.175716    2.914601    1.302791
H     -6.878009   -1.232540    0.086656
H      5.891182   -1.204104   -1.272315
H     -5.381294    2.910227   -2.048601
H      6.316945   -2.476294    0.742003
H     -4.506528    1.506136   -3.798587
H      5.907337    1.860243   -3.211932
