70

C     -1.269697    3.603879   -2.392521
C     -1.774298   -1.657491   -2.618309
C      3.863659    0.474110   -3.028769
C      3.700289    3.492453    2.318631
C     -3.671016   -2.655771    2.807017
C      1.121916   -0.183600    2.336948
C      2.660362   -2.041246    0.542834
C      1.496401   -2.777399   -0.087120
C      0.629042    1.905053   -0.807733
C      0.108186   -2.932005    1.980300
C     -1.659194    2.540586   -1.755517
C     -2.588122   -1.309507   -1.394385
C      3.744243    0.326574   -1.557943
C      2.370363    2.941286    1.974865
C     -2.863856   -1.506172    2.314359
C     -0.804580    1.715887   -0.915755
C      2.438678   -0.561790    0.323018
C      1.063004    1.409929    0.550019
C     -3.040272    1.981314   -1.772026
C      0.028011   -0.899532    0.312198
C     -3.125041    0.926640   -0.643617
C     -1.380221   -0.445926    0.628456
C     -3.939965   -0.845790   -1.829545
C      1.129931   -0.030375    0.798092
C      0.279406   -2.317206    0.742071
C     -2.057594   -0.086034   -0.682283
Cl    -3.435272    1.253129   -3.332635
O      4.568833    0.785137   -0.737400
O      1.370428    3.318670    2.590580
O     -2.808953   -0.465150    2.994501
O     -4.542732   -1.345075   -2.801955
O     -0.761591   -3.190921    0.921688
O      2.646525   -0.364946   -1.061890
O      2.264213    2.021528    0.980529
O     -2.165031   -1.551175    1.116745
O     -4.295849    0.167234   -0.961889
O     -1.028727    0.427556   -1.471806
H     -2.021874    4.135370   -2.993912
H     -0.255829    3.990702   -2.363605
H     -1.160192   -2.584169   -2.465878
H     -2.422116   -1.891107   -3.499736
H     -1.053380   -0.864209   -2.898833
H      4.867306    0.746341   -3.364463
H      3.542074   -0.505800   -3.475978
H      3.118185    1.214511   -3.415144
H      4.302559    3.722974    1.423453
H      4.298523    2.752312    2.913420
H      3.585330    4.444537    2.885481
H     -3.056022   -3.330488    3.457641
H     -4.512916   -2.313431    3.453887
H     -4.027096   -3.294024    1.971585
H      1.727855    0.637078    2.770381
H      1.640999   -1.114089    2.629327
H      0.096917   -0.077524    2.736374
H      3.559135   -2.313086   -0.066982
H      2.876929   -2.328686    1.564717
H      1.391560   -2.438638   -1.121014
H      1.605503   -3.865619   -0.072076
H      1.157904    1.509790   -1.660998
H      0.851744    3.014064   -0.792301
H      0.716254   -3.859804    2.218380
H     -0.261114   -2.499281    2.927093
H     -2.727310   -2.152410   -0.715493
H     -1.244175    1.826525    0.104107
H      3.269792   -0.052962    0.874273
H      0.274133    1.839288    1.241700
H     -3.803972    2.736342   -1.544541
H      0.176379   -0.921605   -0.817290
H     -3.318766    1.398737    0.323972
H     -1.465799    0.314504    1.392702
