73

C     -5.515495   -2.787313   -0.420055
C      5.788737   -3.703409    1.385630
C      1.516741    2.480206    0.940037
C      1.195216    3.891244   -0.908643
C     -5.159198    1.816813   -0.305246
C      0.195331    2.795574    1.394277
C     -0.122541    4.194087   -0.438588
C     -5.103547    3.159640   -0.461260
C      5.802785    0.591483   -1.337713
C     -2.822360   -3.554296    1.790074
C      5.366396    1.170337   -2.626426
C     -3.889768   -3.855873    0.809028
C      3.346442    2.612411   -0.806925
C     -4.549775   -0.402635    0.256529
C     -3.096250    1.670518    0.916194
C     -0.496368   -3.073375    1.333954
C      5.078331   -1.394404   -0.046377
C     -1.279710   -0.732540   -0.129131
C      2.011789    3.028456   -0.217230
C     -4.171553    1.028033    0.378266
C     -1.778627   -2.698351    1.171505
C      4.709625   -0.254671   -0.751828
C     -0.597839    3.638340    0.695830
C     -2.201171   -1.525373    0.441851
C      3.148547    1.354866   -1.660756
C     -3.700289   -1.519855    0.559629
C     -3.985687    3.772017    0.095377
C     -3.019868    3.039395    0.754389
C      0.462498   -2.237807    0.738665
C      0.080579   -1.116777    0.039288
C      4.110358   -2.180937    0.504871
C      3.392637    0.104439   -0.911581
C      2.775229   -1.839435    0.357485
C      2.422387   -0.702682   -0.348723
N      3.978016    1.337944   -2.839611
N     -4.125900   -2.772818   -0.095290
O     -3.935404    5.173020   -0.068369
O      4.415237   -3.338342    1.225652
O     -1.948785    3.878978    1.209364
O      1.790187   -2.640365    0.923131
O      1.131964   -0.379921   -0.488158
H     -5.811789   -2.287692   -1.344607
H     -5.838949   -3.863104   -0.567453
H     -6.092302   -2.453293    0.471778
H      6.328043   -3.611201    0.400846
H      5.884072   -4.747081    1.742620
H      6.315679   -3.030887    2.090982
H      1.952281    1.760651    1.693284
H      1.304961    4.486421   -1.853833
H     -6.040028    1.304964   -0.741109
H      0.004709    2.257337    2.371180
H     -0.617288    4.927981   -1.133406
H     -5.860115    3.740462   -0.976704
H      6.691192   -0.096505   -1.495891
H      6.190635    1.327823   -0.591126
H     -2.326362   -4.564945    2.008149
H     -3.167765   -3.167281    2.778280
H      5.740251    0.486393   -3.448776
H      5.917397    2.130449   -2.849344
H     -4.831888   -4.032956    1.427751
H     -3.700650   -4.813373    0.252254
H      4.167692    2.444957   -0.066746
H      3.862922    3.288809   -1.479450
H     -5.539915   -0.572838    0.791961
H     -4.948005   -0.578309   -0.834388
H     -2.337122    1.129204    1.567426
H     -0.172073   -3.962538    1.884567
H      6.118177   -1.616618    0.039718
H     -1.463658    0.191044   -0.754990
H      2.105028    1.294688   -2.032183
H     -3.963976   -1.782035    1.670606
H      3.550851    0.700435   -3.534334
H     -4.640904    5.682415   -0.546172
