77

C      7.070200   -1.763857    1.699341
C     -0.801033    2.882066    3.237801
C     -6.803140   -0.459035   -3.539779
C     -0.482316   -2.279959    0.599771
C      0.400293   -1.746876    2.747201
C      5.214008    0.662493   -0.990147
C      0.851590   -2.557582    0.181969
C      1.718216   -2.041094    2.265343
C      5.855433   -0.141189   -0.085666
C      2.722176    3.449220   -0.068899
C     -5.502886   -3.094240    0.428045
C      2.822703    4.224443   -1.345324
C     -4.904375   -3.620452    1.657297
C     -2.022859   -1.405916    2.359261
C      3.454668    1.540011   -2.380301
C      3.244754   -0.690652   -1.073949
C      0.687227    2.700522    1.020131
C     -5.540153   -1.430264   -1.301251
C      0.000786    1.079401   -1.152390
C     -0.678398   -1.868270    1.894206
C      3.916807    0.432375   -1.508003
C      1.466402    2.630530   -0.112455
C     -4.850069   -1.879341   -0.157931
C      1.926229   -2.429665    1.002692
C      1.140689    1.819353   -1.231618
C      2.113553    2.100733   -2.314439
C     -3.211142   -1.900921    1.571085
C      5.127445   -1.254765    0.325851
C     -0.448971    1.939327    1.033494
C      3.867793   -1.501917   -0.157695
C     -0.844850    1.101465   -0.039909
C     -5.006528   -0.339667   -1.900427
C     -3.720568   -1.294329    0.351335
C     -3.861517    0.267034   -1.401834
C     -3.148110   -0.145401   -0.279133
N      2.120254    3.611569   -2.386566
N     -3.775516   -2.906414    2.116291
O     -3.450706    1.395887   -2.151942
O      5.788526   -2.072929    1.251247
O     -1.215742    2.046828    2.203151
O     -5.640495    0.170662   -3.047541
O      3.278830   -2.693182    0.433272
O     -2.021943    0.451266    0.190839
H      7.442275   -2.570851    2.355105
H      7.032833   -0.777676    2.213892
H      7.770140   -1.729457    0.819903
H     -1.507745    2.931319    4.078904
H     -0.683837    3.948009    2.890761
H      0.221211    2.614008    3.622493
H     -7.228765    0.183561   -4.327369
H     -7.587723   -0.552010   -2.746705
H     -6.593767   -1.474374   -3.939277
H     -1.179994   -2.453466   -0.268319
H      0.507204   -1.449129    3.830207
H      5.784637    1.548862   -1.325300
H      0.798462   -2.910298   -0.887696
H      2.459690   -1.904947    3.107894
H      6.841912    0.066946    0.279754
H      3.555424    2.733014    0.084249
H      2.684123    4.148754    0.816023
H     -6.584133   -2.892399    0.623963
H     -5.496881   -3.892908   -0.372586
H      2.418600    5.260866   -1.199572
H      3.915841    4.361673   -1.523145
H     -5.668523   -3.774735    2.478133
H     -4.550178   -4.685222    1.472678
H     -2.270027   -1.613424    3.448210
H     -2.200824   -0.306927    2.329919
H      3.768646    1.365395   -3.474540
H      4.126229    2.470383   -2.217298
H      2.244880   -0.975532   -1.561896
H      0.970190    3.337481    1.867628
H     -6.438667   -1.940584   -1.660097
H     -0.296014    0.337539   -2.001362
H      1.662311    1.936226   -3.355940
H      1.140467    3.938294   -2.416031
H     -3.915263    1.734339   -2.950071
