41

C     -1.877635   -0.525571    1.111841
C     -3.952825    0.995311   -0.285764
C     -2.891618    2.028969   -0.219589
C     -3.614543   -0.276422   -0.987484
C      2.900695   -0.826373    1.139652
C      3.176628    0.860477   -0.456996
C      4.262155   -1.121188    1.033003
C      4.511395    0.586889   -0.575403
C     -1.524881    1.527197    0.068246
C     -2.157531   -0.369940   -1.232637
C      0.903377    0.448140    0.531994
C      2.329150    0.180660    0.387787
C      5.081939   -0.419743    0.176200
C     -0.007590   -0.268362   -0.385783
C      0.119541   -1.733418   -0.228217
N     -1.404892    0.081910   -0.108903
O      6.443655   -0.700265    0.056595
O      1.245531   -2.268716   -0.515758
O     -0.853244   -2.599191    0.200497
H     -2.383968    0.229526    1.788549
H     -2.631185   -1.319126    0.970487
H     -1.044880   -0.906766    1.758295
H     -4.803273    1.472230   -0.873709
H     -4.420604    0.770051    0.702671
H     -2.883630    2.699833   -1.122956
H     -3.183688    2.737568    0.611855
H     -4.050794   -1.138020   -0.415528
H     -4.127516   -0.315596   -2.000526
H      2.339265   -1.438800    1.849461
H      2.736563    1.648427   -1.047113
H      4.720172   -1.907577    1.616786
H      5.086755    1.188287   -1.275043
H     -1.173730    1.872098    1.055546
H     -0.836808    1.970027   -0.691074
H     -1.816199   -1.402661   -1.493210
H     -1.928431    0.320622   -2.110299
H      0.738997    1.546991    0.449909
H      0.622129    0.209850    1.579428
H      0.135632   -0.049871   -1.459438
H      7.156140   -0.261610    0.619734
H     -0.940254   -3.525846   -0.223105
