30

C      1.290936   -0.910644    1.684257
C      2.384545   -0.256990   -0.383628
C     -1.970384   -0.558457    1.122745
C     -0.106409   -1.710167   -1.278993
C      0.805001    1.259545    0.711217
C     -1.455086    1.305456   -0.420036
C     -0.079602    1.911000   -0.286520
C     -0.064506   -0.729324   -0.411493
C     -1.461467   -1.857550   -1.786701
C      1.078874   -0.187369    0.373866
C     -1.424489   -0.195570   -0.276461
O      0.473886    1.975111   -1.554121
O     -1.888090   -2.698884   -2.636032
O     -2.210381   -0.897328   -1.163800
H      0.576812   -0.613076    2.458556
H      2.335847   -0.654771    2.010335
H      1.298984   -1.992446    1.461933
H      3.124058    0.318908    0.188812
H      2.284687    0.090168   -1.421343
H      2.688030   -1.339360   -0.384472
H     -1.656917    0.146049    1.888605
H     -3.085828   -0.619566    1.013460
H     -1.628030   -1.586541    1.348776
H      0.711542   -2.361688   -1.618595
H      1.773907    1.792518    0.700514
H      0.372518    1.395587    1.725245
H     -2.152904    1.710313    0.333905
H     -1.856666    1.553071   -1.420102
H     -0.238599    2.972437    0.042087
H      0.079729    2.739567   -2.022017
