59

C      7.472970   -0.320790    1.727094
C      1.818808    0.546041   -1.438082
C      0.878615   -0.520684   -1.759679
C      3.214639    0.323657   -1.100905
C      0.571078   -1.576291   -0.772533
C      3.619986   -0.459183    0.070315
C      0.017718   -1.091331    0.523543
C      5.133284   -0.530263    0.215105
C     -1.261040   -0.324724    0.397378
C      5.777704    0.809566    0.372790
C     -2.393397   -1.072653   -0.202730
C     -3.535794    0.955562   -1.134031
C     -4.923282    1.467575   -1.435804
C     -6.448426   -0.584625    1.346129
C      7.284803    0.552426    0.504739
C     -3.664686   -0.275381   -0.302053
C     -5.543275    0.536174    0.819503
C     -5.977412    0.875452   -0.549971
N     -4.197012    0.107305    0.972294
O     -6.190271   -0.848359    2.690747
O      7.965696    1.752921    0.691506
O     -7.011758    1.823336   -0.460245
H      6.654875   -0.108140    2.466912
H      7.380753   -1.380476    1.446685
H      8.481020   -0.155338    2.199104
H      1.300884    1.215370   -0.665038
H      1.818355    1.259599   -2.335208
H      1.074864   -1.025321   -2.747625
H     -0.118636   -0.009986   -1.978724
H      3.685024    1.355117   -0.974857
H      3.806366   -0.080828   -1.987029
H     -0.287840   -2.186289   -1.235085
H      1.323803   -2.344090   -0.587095
H      3.244581    0.072391    0.994674
H      3.292042   -1.488708    0.165991
H     -0.245455   -2.022072    1.113723
H      0.766449   -0.584033    1.165707
H      5.567002   -1.095804   -0.633908
H      5.343750   -1.115158    1.133947
H     -1.029219    0.631443   -0.110784
H     -1.543495   -0.018073    1.448471
H      5.642369    1.505842   -0.447986
H      5.484279    1.305529    1.317992
H     -2.116342   -1.395211   -1.242341
H     -2.591877   -2.001944    0.363349
H     -2.935744    0.807288   -2.054492
H     -3.041829    1.736613   -0.507819
H     -5.147354    1.166260   -2.491252
H     -4.943934    2.577479   -1.433844
H     -6.267540   -1.535883    0.797695
H     -7.520049   -0.339589    1.182735
H      7.658221   -0.011790   -0.368525
H     -4.430685   -0.931002   -0.791635
H     -5.705163    1.393435    1.534125
H     -6.444023   -0.016692   -1.055425
H     -4.086656   -0.717302    1.624748
H     -6.926420   -0.427444    3.206875
H      7.740471    2.038420    1.633164
H     -7.491797    1.780657   -1.331874
