52

C     -3.937489    5.102904    0.811321
C     -3.151998   -3.988303   -0.122662
C     -3.780926   -2.910619   -0.958590
C      4.580114   -0.838320   -1.550433
C      5.698091   -1.644988   -1.424816
C     -2.043307   -3.328535    0.652856
C     -2.914004   -1.694896   -0.753224
C     -0.235030    2.902270    0.474578
C      0.313428    2.113444   -0.662784
C      4.825853   -0.157796    0.684475
C      2.917883    0.802357   -0.601861
C     -0.791574   -1.386223    0.289803
C     -1.471532    0.841047    1.216436
C      4.112295   -0.070579   -0.496074
C     -0.844810    0.096589    0.076592
C      6.396469   -1.718359   -0.238525
C      5.940467   -0.959291    0.816779
C      1.657897    0.098570   -0.237960
C     -2.662668    3.009960    0.995908
Cl     7.823090   -2.746477   -0.075054
Cl     6.839018   -1.060071    2.326638
N     -2.160579   -1.906933    0.452340
N     -1.461467    2.253497    0.896236
N      0.393519    0.726670   -0.263424
O      1.798170   -1.107103    0.097423
O     -3.749074    2.478779    1.359610
O     -2.713502    4.363995    0.702567
H     -4.560861    4.655358    1.588378
H     -4.438455    5.072819   -0.179095
H     -3.650871    6.150652    0.995944
H     -2.781707   -4.772282   -0.818924
H     -3.899404   -4.465965    0.555819
H     -3.860499   -3.176807   -2.032042
H     -4.825464   -2.742306   -0.598461
H      4.034400   -0.781808   -2.479521
H      6.065987   -2.245555   -2.245761
H     -1.084473   -3.739213    0.265820
H     -2.148204   -3.585883    1.719636
H     -2.297823   -1.524468   -1.645215
H     -3.601557   -0.820465   -0.647977
H     -0.465048    3.921467    0.109345
H      0.417319    2.965403    1.347839
H     -0.436598    2.192382   -1.504806
H      1.254028    2.500743   -1.081262
H      4.497031    0.425707    1.538434
H      2.883409    1.257672   -1.599798
H      3.018602    1.649578    0.126284
H     -0.385596   -1.907719   -0.596728
H     -0.167819   -1.700544    1.151222
H     -0.875106    0.647267    2.146264
H     -2.507009    0.510996    1.418956
H     -1.562615    0.241379   -0.791106
