33

C      2.709108   -1.169408    0.313120
C     -2.770946    1.688518   -0.945118
C      0.420891   -0.752707   -1.773234
C     -2.491481   -0.943064   -0.121700
C      1.724379    0.900215   -0.432560
C      4.045268    1.002644    0.146261
C      2.799507    0.263789   -0.002900
C     -1.501953    1.348231   -0.180703
C     -0.150810   -0.380899    0.611544
C      0.411476    0.233094   -0.615046
C     -1.618198    0.068787    0.589378
O      4.097959    2.215522   -0.126502
O     -0.254177   -1.791536    0.548199
O     -2.100324    0.251642    1.883321
O     -0.466007    1.260434   -1.038714
H      2.291550   -1.813991   -0.452764
H      2.326278   -1.369919    1.356854
H      3.782308   -1.539533    0.406249
H     -2.794359    1.224708   -1.950637
H     -3.662554    1.419533   -0.340474
H     -2.818202    2.788773   -1.107850
H      1.355583   -0.729215   -2.358099
H      0.124258   -1.779779   -1.435815
H     -0.378744   -0.515385   -2.537981
H     -2.476902   -0.828863   -1.220551
H     -2.134175   -1.996414    0.072414
H     -3.521577   -0.909404    0.302776
H      1.848690    1.980503   -0.656550
H      4.929508    0.505557    0.493397
H     -1.345797    2.174720    0.541895
H      0.329686   -0.082288    1.560170
H     -0.432315   -2.071271    1.479135
H     -2.277927   -0.652993    2.250524
