50

C      4.331758   -1.070681    1.283324
C     -5.478768    0.183786    1.138490
C      1.570634    3.229253   -1.984117
C      2.055287    3.416702    0.415925
C      3.733430   -0.029888    0.364751
C      3.036758   -0.584675   -0.822019
C     -1.180024    2.312319   -0.078981
C     -0.206552    3.150852   -0.321699
C     -4.095271   -1.667874    0.172448
C      2.046759   -2.849220   -0.595274
C     -4.099601   -0.409399    1.023149
C      1.886285   -1.451483   -0.601822
C     -0.901188    0.883519   -0.084340
C     -2.776557   -2.388430    0.429207
C      0.970872   -3.623873   -0.340180
C      0.643376   -0.935087   -0.350695
C     -1.690606   -1.383951    0.162390
C     -1.910771   -0.028970    0.163194
C      0.373215    0.432632   -0.341518
C     -0.404483   -1.833441   -0.097659
C      1.164903    2.693808   -0.601036
O     -2.587378   -3.411012   -0.497425
O      1.110221   -4.882293   -0.333037
O     -3.179974    0.468388    0.417597
O     -0.218501   -3.139626   -0.097968
O      1.366929    1.327421   -0.589198
H      5.029763   -0.498212    1.933598
H      3.622915   -1.556487    1.954621
H      4.995278   -1.779445    0.721403
H     -6.091180   -0.080439    0.254923
H     -5.431578    1.267509    1.295667
H     -5.955673   -0.265407    2.036885
H      2.625113    2.977663   -2.137149
H      0.941532    2.669944   -2.699782
H      1.380137    4.306611   -2.014531
H      2.252739    2.829378    1.311773
H      3.011099    3.726659   -0.051266
H      1.558915    4.372007    0.754795
H      3.185316    0.648005    1.029734
H      4.606315    0.559978   -0.014728
H      2.809402    0.264739   -1.464474
H      3.860275   -1.208509   -1.339613
H     -2.193896    2.626663    0.127800
H     -0.411336    4.237129   -0.318828
H     -4.963310   -2.313127    0.348286
H     -4.047987   -1.311327   -0.883615
H      3.053745   -3.251619   -0.800777
H     -3.701471   -0.692255    2.018392
H     -2.710804   -2.773243    1.464796
H     -2.986064   -3.164992   -1.361419
