44

C      2.685546    2.215935    0.668890
C     -3.724345   -2.086487    0.484627
C      3.181179   -1.649569    2.153494
C      3.950125   -1.570734   -0.198532
C      0.573089   -2.275414   -0.093602
C      1.786892   -2.481014    0.372564
C      0.840649    3.752440   -0.052220
C     -3.914837   -0.110244   -0.931827
C      1.321941    2.480373    0.144732
C     -3.405930   -1.501772   -0.899328
C      0.113799   -0.912445   -0.282942
C     -2.943792    0.902674   -1.470897
C     -0.427831    3.928088   -0.539091
C      0.511065    1.416419   -0.154581
C     -1.602089    0.647235   -0.954903
C     -1.164348   -0.640449   -0.774458
C      0.960456    0.126811    0.030306
C     -0.765264    1.700848   -0.645554
C      2.733111   -1.419242    0.723647
O     -3.417909    2.167003   -1.082239
O     -0.854969    5.128205   -0.714602
O     -2.037875   -1.665680   -1.098164
O     -1.203859    2.917869   -0.825615
O      2.235869   -0.128252    0.520558
H      2.678948    1.773813    1.686354
H      3.125058    3.252309    0.863023
H      3.370203    1.758513   -0.044986
H     -3.600509   -3.204434    0.425055
H     -2.979993   -1.634531    1.176102
H     -4.763558   -1.816209    0.747709
H      4.150169   -2.192286    2.157582
H      3.218578   -0.703218    2.732203
H      2.452825   -2.306424    2.682363
H      3.732974   -1.106663   -1.179282
H      4.862874   -1.165350    0.276794
H      4.131078   -2.646235   -0.391363
H     -0.111677   -3.079244   -0.347315
H      2.112426   -3.503952    0.507352
H      1.505400    4.577541    0.193621
H     -4.260717    0.229438    0.046070
H     -4.808782   -0.083725   -1.611359
H     -3.930572   -2.159849   -1.626852
H     -2.934515    0.896445   -2.597765
H     -3.380882    2.171467   -0.075570
