65

C     -1.753502   -3.370313    0.863941
C     -2.717513   -1.149851    1.171337
C      2.936971   -2.868368    2.334150
C     -3.531367    4.405333    2.640209
C     -2.293067   -3.448895   -3.809091
C      3.369179    2.184645    1.556440
C      3.286968   -0.329570   -0.801067
C      3.311810   -1.202461    0.433438
C      1.363534   -2.913926    0.626854
C     -0.454540    2.741450   -0.746413
C      0.492704   -2.582871   -0.460764
C      0.659432    2.491922    0.194037
C      4.041427    0.999048   -0.575802
C     -1.650907    0.479701   -1.090050
C     -2.857309    2.526519   -0.625147
C     -1.633792   -2.073343    0.637282
C      2.632921   -2.139381    0.991227
C     -3.702399    3.849210    1.263688
C     -1.420336   -2.425620   -3.155281
C     -1.536435    1.728195   -0.862592
C     -0.485088   -1.492236   -0.092576
C     -0.927612   -0.775242   -1.376514
C      1.931644    2.252332   -0.572632
C      3.103005    1.982731    0.107804
O     -4.754378    4.075119    0.581777
O     -0.295890   -2.143672   -3.672864
O     -2.715801    3.066596    0.684831
O     -1.768064   -1.762989   -2.011075
O      2.934413    3.265627   -0.573191
H     -1.081669   -4.140352    0.556261
H     -2.630057   -3.733608    1.429021
H     -3.658755   -1.254323    0.611112
H     -2.934106   -1.524666    2.211672
H     -2.362030   -0.113747    1.246108
H      3.730640   -2.653191    2.949354
H      3.021914   -3.985011    2.107479
H      1.994942   -2.806350    2.975996
H     -2.799974    5.261710    2.627097
H     -3.118532    3.625337    3.285510
H     -4.517666    4.791724    2.980943
H     -2.100619   -3.340656   -4.911195
H     -3.361414   -3.283534   -3.614009
H     -1.934999   -4.451821   -3.529840
H      3.471458    1.202583    2.049751
H      2.616106    2.808385    2.074737
H      4.333626    2.766163    1.643571
H      3.766108   -0.795831   -1.669299
H      2.292846    0.021476   -1.118377
H      4.320932   -0.770851    0.869553
H      1.637313   -4.017779    0.514766
H      0.682003   -2.955667    1.555835
H     -0.812411    3.772046   -0.489951
H     -0.055132    2.899916   -1.801455
H      0.023110   -3.469760   -0.917506
H      1.099970   -2.129814   -1.311278
H      0.792351    3.305117    0.963009
H      0.426377    1.592158    0.790608
H      4.316996    1.366030   -1.560842
H      4.947198    0.786189    0.016906
H     -2.768146    0.161345   -1.076506
H     -3.740385    1.942926   -0.655192
H     -2.919199    3.324442   -1.393478
H      0.039131   -0.745985    0.560976
H     -0.042752   -0.739104   -2.018685
H      1.758823    1.914811   -1.614605
