41

C      4.016203   -2.338407    1.045635
C     -3.832778   -2.321947    1.204269
C     -2.556307   -2.713611    0.840037
C     -3.195320    1.956107   -0.804001
C      1.488259    4.145110   -0.427047
C     -4.304659   -1.067480    0.900509
C     -3.986511    1.076623   -0.106280
C     -1.777965   -1.806470    0.165577
C     -1.928335    1.579285   -1.166976
C      1.114828    2.948417    0.020524
C      2.056888    4.275507   -1.648619
C      1.107185   -0.097012    0.921771
C      2.286586   -1.895358   -0.562864
C     -3.492893   -0.170366    0.216130
C      2.128148   -0.478585   -0.153151
C     -2.194318   -0.536739   -0.165568
C     -1.388704    0.323754   -0.858686
C      1.290042    1.849788   -0.718566
C      0.984424    0.382203   -0.502502
N      2.679039   -2.692092    0.613359
O     -0.119573   -0.004076   -1.245653
S      2.071535    2.489442   -2.251182
H      4.639926   -3.225186    1.276517
H      4.014292   -1.683849    1.942960
H      4.578996   -1.772922    0.261950
H     -4.480093   -3.002282    1.736709
H     -2.155955   -3.702518    1.066379
H     -3.574281    2.944385   -1.066378
H      1.348286    5.084659    0.186664
H     -5.293013   -0.723084    1.167051
H     -5.002261    1.364597    0.190963
H     -0.759402   -2.068297   -0.168217
H     -1.268732    2.239039   -1.717317
H      0.635828    2.835595    1.045969
H      2.435184    5.049077   -2.245388
H      0.618892   -0.975287    1.327469
H      1.424821    0.697163    1.648685
H      3.195022   -1.943971   -1.233389
H      1.423798   -2.378768   -1.023899
H      3.111986    0.064432   -0.031669
H      2.660929   -3.706878    0.318223
