81

C      7.574967    0.598612   -1.401344
C      6.660603   -0.144827   -3.559423
C     -7.078797   -0.644720   -2.716710
C     -6.043487    1.548007   -2.478551
C      0.457007    1.646448    4.511903
C     -1.844374   -3.133288    2.592128
C      1.106115    0.566468    5.035327
C     -2.679700   -2.541337    3.505249
C      0.168418    1.676969    3.148453
C     -1.229438   -2.460524    1.571937
C      1.479324   -0.495886    4.225236
C     -2.924412   -1.190610    3.402526
C      5.246741   -0.293176   -1.567713
C      0.880928    1.513584    0.016507
C     -1.159067   -0.523868   -0.888027
C      6.322932    0.516598   -2.259741
C     -6.418324    0.307225   -1.738222
C      0.519218    0.646023    2.307716
C     -1.478691   -1.083435    1.468247
C      1.175437   -0.427733    2.879868
C     -2.319092   -0.479906    2.382762
C      4.918094    0.386948   -0.259596
C      2.105678    1.002302   -0.709640
C     -2.319384    0.291144   -1.430618
C     -5.194953   -0.397855   -1.195204
C      3.203684    2.033061   -0.745578
C     -3.104148   -0.445628   -2.424879
C      3.877831   -0.376074    0.433181
C     -4.460495    0.442203   -0.219352
C      1.315591   -0.773205    0.572650
C     -2.039509    1.051049    0.714991
C      0.367736    0.378341    0.879050
C     -1.008499   -0.041599    0.535531
N      4.419086    1.714692   -0.542314
N      1.472061   -1.397400    1.873485
N     -2.462300    0.917809    2.100093
N     -4.343378   -0.726820   -2.293095
N      2.515323   -0.108705    0.147635
N     -3.053296    0.610408   -0.224592
O      2.820685    3.336805   -1.010075
O     -2.463111   -0.875692   -3.602974
O      4.183050   -1.265197    1.278088
O     -5.121363    1.040131    0.663620
H      8.444973    0.603165   -2.087189
H      7.552604    1.512886   -0.745453
H      7.674900   -0.305963   -0.766793
H      6.672127   -1.244365   -3.401464
H      5.922838    0.073661   -4.355965
H      7.676296    0.193251   -3.852885
H     -6.552604   -0.546149   -3.679877
H     -8.171729   -0.473214   -2.784274
H     -6.885355   -1.686226   -2.352621
H     -6.979689    2.083596   -2.745155
H     -5.448000    1.260557   -3.366196
H     -5.395750    2.171164   -1.832538
H      0.170912    2.473795    5.164986
H     -1.664271   -4.195420    2.688676
H      1.338750    0.525472    6.094160
H     -3.138788   -3.135149    4.296292
H     -0.340031    2.558838    2.800231
H     -0.575960   -2.943597    0.850794
H      1.985241   -1.315536    4.687865
H     -3.575778   -0.697072    4.105303
H      5.499862   -1.351739   -1.462087
H      4.333657   -0.226920   -2.198423
H      1.199184    2.325061    0.683036
H      0.108555    1.888954   -0.680350
H     -1.490248   -1.583171   -0.897973
H     -0.242016   -0.372174   -1.494757
H      5.939145    1.546127   -2.365132
H     -7.178117    0.509286   -0.936740
H      5.812174    0.481443    0.389830
H      1.916997    0.701479   -1.740258
H     -1.954602    1.236800   -1.897195
H     -5.458959   -1.335292   -0.673456
H      0.930432   -1.433580   -0.206813
H     -1.671070    2.054335    0.516826
H      1.753466   -2.385979    2.033616
H     -2.787885    1.699485    2.705691
H      3.525568    4.059908   -1.080099
H     -2.991518   -1.219604   -4.392149
