41

C     -4.991503    2.206666    0.790604
C     -5.356499   -0.195331    0.755354
C      5.619471    1.382773    1.961114
C      3.120590   -2.050554   -2.294377
C      4.295200   -1.749192   -1.660959
C      1.939834   -1.425246   -1.964513
C      3.462885    0.724162    0.688887
C     -2.822108   -0.496383   -0.490358
C     -0.484310    0.344691   -0.763036
C     -4.561520    0.934167    0.107379
C      4.814035    0.634186    0.962373
C     -1.342013   -0.838200   -0.436881
C      3.144910   -0.169366   -0.328251
C      4.313123   -0.789576   -0.656811
C      1.915112   -0.462971   -0.968074
N     -3.136091    0.704641    0.227131
N      5.299962   -0.292387    0.129282
O     -1.111595   -1.980777   -1.134180
O      0.831567    0.198656   -0.577373
H     -5.738816    2.711875    0.137351
H     -4.121324    2.898317    0.927737
H     -5.467365    2.022195    1.777107
H     -4.917311   -0.416985    1.732062
H     -6.392304    0.187249    0.866526
H     -5.400675   -1.063895    0.071741
H      4.974399    1.819404    2.751071
H      6.177250    2.193151    1.462233
H      6.364192    0.664210    2.382598
H      3.123425   -2.809806   -3.084290
H      5.220759   -2.243280   -1.923761
H      1.071337   -1.708323   -2.521614
H      2.774132    1.378710    1.183531
H     -3.383958   -1.343399   -0.013841
H     -3.162700   -0.427531   -1.526032
H     -0.882934    1.180750   -0.082667
H     -0.768865    0.749059   -1.782028
H     -4.788685    0.996933   -0.971188
H     -1.135926   -1.074090    0.652548
H     -2.907688    0.622040    1.242470
H      6.292067   -0.598771    0.079818
H     -1.880058   -2.417772   -1.540532
