38

C     -0.439908   -0.187961   -2.901509
C      2.076205   -3.158739    0.191709
C      4.856563    0.768905    1.027826
C     -1.445402   -0.667567   -2.184926
C     -4.504706    1.061841    1.252932
C     -4.119852    1.502803    0.020616
C     -3.884712    0.011712    1.917285
C     -3.065865    0.886719   -0.609252
C     -2.824176   -0.572725    1.230247
C      0.203208    1.204913   -0.281665
C      2.360500   -0.404694    0.310059
C     -2.406104   -0.158727   -0.010362
C     -1.270649   -0.797000   -0.716719
C      0.025540   -0.174767   -0.350435
C      1.410158    1.768609    0.069273
C      1.125877   -0.948124   -0.048095
C      2.500918    0.984717    0.368977
O      1.558859    3.142857    0.129859
O      0.965192   -2.340336   -0.112618
O      3.723312    1.529733    0.724012
H      0.509037    0.116027   -2.467785
H     -0.506409   -0.067547   -3.994449
H      1.762095   -4.223261    0.265408
H      2.520622   -2.869945    1.164763
H      2.860041   -3.092557   -0.599505
H      5.755127    1.375928    1.215701
H      4.702376    0.068274    1.864821
H      5.071087    0.141671    0.121757
H     -2.377732   -0.957989   -2.688588
H     -5.345685    1.580066    1.715231
H     -4.591916    2.321590   -0.513799
H     -4.215152   -0.308306    2.886112
H     -2.750472    1.239822   -1.605901
H     -2.330019   -1.406127    1.754804
H     -0.682898    1.800547   -0.526096
H      3.217931   -1.031041    0.545733
H     -1.197505   -1.873163   -0.425331
H      0.754518    3.733841   -0.090381
