45

C      3.767381    1.048471    0.265820
C     -3.364896   -1.612051   -0.818367
C      5.068162    0.763494   -0.076515
C     -4.724383   -1.737823   -0.806850
C      3.362243   -1.284645    0.526571
C     -3.538335    0.191614    0.685197
C     -1.362643    1.870739   -0.862763
C      0.594059   -0.347829   -1.289070
C      2.899627   -0.001240    0.573092
C     -2.730572   -0.622912   -0.055962
C     -0.776085    0.913826    0.124514
C      0.689569    0.750119   -0.259089
C      5.537740   -0.528241   -0.124435
C     -5.500076   -0.873489   -0.027830
C      4.671659   -1.543620    0.180192
C     -4.909758    0.109750    0.733712
C      1.506339    0.351962    0.936713
C     -1.254303   -0.519837   -0.077726
O     -1.262007    1.392596   -2.171572
O      6.861141   -0.796925   -0.474069
O     -6.882125   -0.995758   -0.011770
O      5.118359   -2.869246    0.140768
O     -5.733784    0.932418    1.482440
O      1.577574    1.419961    1.829046
O     -0.736624   -0.765834   -1.352996
H      3.420635    2.078670    0.296350
H     -2.769187   -2.276220   -1.416930
H      5.768260    1.567000   -0.321657
H     -5.231712   -2.493769   -1.387615
H      2.668604   -2.096355    0.770456
H     -3.079801    0.955100    1.289244
H     -2.414631    2.064346   -0.675565
H     -0.819749    2.834555   -0.744079
H      0.847187    0.028349   -2.304903
H      1.290947   -1.188421   -1.090615
H     -0.903843    1.190842    1.165911
H      1.123989    1.641892   -0.705549
H      1.035629   -0.523258    1.449878
H     -0.821938   -1.173988    0.671738
H     -0.623733    1.907388   -2.718846
H      7.501255   -0.054380   -0.698714
H     -7.466811   -0.385024    0.541789
H      6.063405   -3.080024   -0.107705
H     -5.349256    1.675798    2.063434
H      0.882488    2.082002    1.585754
