76

C     -6.588295   -3.253382    2.136632
C     -1.136090    6.570649    2.003764
C      1.477542    4.979439   -2.057546
C      5.944865    0.428134    0.552373
C     -0.291064   -3.984953   -3.502913
C      0.656939   -3.000263   -3.515853
C     -1.140902   -4.029190   -2.390867
C      3.450173   -2.832037    1.777873
C      0.789522   -2.067770   -2.473746
C     -1.048580   -3.134448   -1.345529
C      4.134840   -1.763758    2.619971
C     -2.813928   -1.488042    1.303113
C     -3.508878   -1.002200   -0.902003
C     -4.024588   -2.065699    1.592428
C     -4.725334   -1.584087   -0.608486
C      3.210939   -2.106797    0.474084
C     -0.147288    4.455384    0.269988
C     -1.259352    2.849784    1.675816
C     -0.061368   -2.148644   -1.405947
C     -2.516315   -0.943105    0.065330
C     -5.026994   -2.133332    0.640923
C     -0.929700    4.168945    1.379079
C      0.329954    3.466446   -0.576163
C     -0.785280    1.872503    0.834460
C      4.184492   -0.536609    1.751944
C      0.008161   -1.207786   -0.287708
C     -0.010600    2.187529   -0.264071
C      1.017561   -0.114427   -0.510951
C      1.946161    0.188759    0.603792
C     -1.110995    0.466541   -1.424499
C      0.318007    1.036543   -1.139519
C     -1.238893   -0.334321   -0.164517
N      2.954754   -0.756084    0.918987
O      1.887864    1.240976    1.268013
O     -1.083254   -0.253048   -2.558331
O      0.909878    1.476189   -2.327763
O     -6.235529   -2.702036    0.910801
O     -1.372063    5.210481    2.171258
O      1.113000    3.672803   -1.692956
O      5.202933   -0.684214    0.782960
O     -1.025698    0.525844    0.992014
H     -5.785509   -3.769185    2.682325
H     -6.959096   -2.435408    2.799433
H     -7.414253   -4.011049    2.031094
H     -1.111019    6.821595    0.913900
H     -1.949538    7.238366    2.419498
H     -0.138272    6.899318    2.381537
H      1.846449    5.021847   -3.110757
H      2.294776    5.294897   -1.358088
H      0.653961    5.696606   -1.911984
H      6.698655    0.158461   -0.230893
H      6.471949    0.739922    1.467272
H      5.373435    1.260177    0.086522
H     -0.381017   -4.684918   -4.316782
H      1.323864   -2.974957   -4.389200
H     -1.906854   -4.824867   -2.387985
H      2.474884   -3.098819    2.195046
H      4.071581   -3.747699    1.648294
H      1.579517   -1.351026   -2.629378
H     -1.736677   -3.241036   -0.503913
H      3.581064   -1.640681    3.567237
H      5.147902   -2.188954    2.853893
H     -2.076974   -1.465187    2.080104
H     -3.317659   -0.585865   -1.891874
H     -4.236753   -2.480601    2.573469
H     -5.485031   -1.615578   -1.366956
H      2.368671   -2.569627   -0.096379
H      4.168438   -2.134034   -0.087128
H      0.108630    5.480936    0.031716
H     -1.855209    2.593249    2.518151
H      4.151625    0.419108    2.225979
H      0.070317   -1.708633    0.700500
H      1.774347   -0.418732   -1.310312
H     -1.844538    1.305806   -1.436661
H     -1.225549    0.317150   -3.354388
H      1.807288    1.028703   -2.369528
