45

C     -4.005683   -0.628794    1.333595
C      3.880013   -1.693152   -0.314951
C     -5.282599   -0.222511    1.053956
C      5.147331   -1.246447   -0.606700
C     -3.101487    0.839748   -0.311806
C      2.981973    0.233079   -1.303986
C      1.770488    0.244075    1.470574
C     -0.406932   -0.364457   -1.130753
C     -2.897626   -0.109924    0.661208
C      2.763446   -0.960547   -0.658304
C      0.829279   -0.752973    0.833285
C     -0.406361   -0.072524    0.322932
C     -5.459253    0.731620    0.072392
C      5.343748   -0.046664   -1.254649
C     -4.382398    1.266495   -0.612851
C      4.242790    0.699227   -1.605787
C     -1.593339   -0.608452    1.061624
C      1.379104   -1.457189   -0.340589
O      1.047080    0.826479    2.537553
O     -6.734947    1.170178   -0.241644
O      6.604817    0.400224   -1.546188
O     -4.554328    2.224911   -1.599468
O      4.405897    1.912071   -2.259290
O     -1.411389   -0.453368    2.428769
O      0.596305   -1.237784   -1.427544
H     -3.874064   -1.378714    2.105904
H      3.726416   -2.631989    0.192069
H     -6.161447   -0.624246    1.576969
H      6.020659   -1.819542   -0.338109
H     -2.298115    1.297449   -0.868092
H      2.097818    0.827656   -1.585419
H      2.665393   -0.194780    1.896063
H      2.009599    1.066547    0.792049
H     -1.411571   -0.818028   -1.386058
H     -0.268095    0.525006   -1.786375
H      0.519507   -1.531159    1.591492
H     -0.318607    1.055071    0.503031
H     -1.638196   -1.742157    0.890524
H      1.454719   -2.577357   -0.180287
H      1.364626    0.502571    3.407740
H     -7.543799    0.806431    0.233155
H      6.727598    1.282856   -2.021926
H     -5.428437    2.594467   -1.887164
H      3.662705    2.505898   -2.544490
H     -2.062637    0.160695    2.847544
