60

C      3.518963   -2.654083    0.763620
C     -2.203695   -3.737966    1.790238
C      4.394972   -0.358760   -0.769879
C      2.588884   -1.558765   -1.775166
C     -2.741584    2.032945   -0.887470
C     -2.434185    2.780663    1.405754
C     -1.389664   -2.501077   -1.486467
C      2.950799   -1.459319    0.705901
C     -1.569675   -3.560293    0.667427
C      0.607526    4.807671   -0.462599
C     -0.559826    4.132238   -0.171504
C      1.789210    4.116337   -0.676446
C     -2.626245   -0.215411    1.010907
C     -2.792520   -1.427831    0.177625
C     -0.355396   -1.575456    1.937562
C     -0.543174    2.749724   -0.093965
C     -1.437475    0.630807    0.778900
C     -0.288224   -1.450327    0.460111
C      1.800694    2.731275   -0.598330
C     -0.383570   -0.086444   -0.019920
C      0.612229    2.085804   -0.305604
C      0.813804    0.716614   -0.264470
C      2.156228    0.551616   -0.534221
C      2.896144   -0.687894   -0.555954
C     -1.767933    2.000444    0.259784
C     -1.555124   -2.229167    0.015934
N     -0.398848   -1.689782    3.093614
N      2.724521    1.789239   -0.733040
H      3.584409   -3.251326    1.650267
H      3.953244   -3.071631   -0.137091
H     -2.216852   -4.711138    2.272124
H     -2.734040   -2.930828    2.273185
H      4.807896    0.110747    0.130555
H      4.864093   -1.343722   -0.970998
H      4.450822    0.239772   -1.684600
H      3.377158   -1.546199   -2.519414
H      1.607950   -1.196541   -2.155522
H      2.396321   -2.583567   -1.369920
H     -2.161615    2.327101   -1.815232
H     -3.461697    2.874098   -0.761781
H     -3.219069    1.089279   -1.126088
H     -3.279757    3.361876    1.043972
H     -2.734282    2.082633    2.215670
H     -1.659788    3.440230    1.830881
H     -1.822083   -3.466418   -1.777729
H     -1.854541   -1.718645   -2.089006
H     -0.314092   -2.547649   -1.754585
H      2.525676   -1.062445    1.607977
H     -1.047167   -4.409748    0.214524
H      0.651295    5.900452   -0.537230
H     -1.458148    4.698623   -0.011045
H      2.737329    4.604954   -0.908536
H     -3.532406    0.436394    0.815640
H     -2.764460   -0.492630    2.101699
H     -3.563301   -2.083556    0.681900
H     -3.299413   -1.202225   -0.805136
H     -0.974486    0.813026    1.799737
H      0.494082   -2.117967    0.062358
H     -0.878881   -0.151868   -1.054789
H      3.718967    1.976117   -0.954130
