41

C      4.442884    1.487473   -1.254164
C      4.317720    0.398299   -0.236593
C     -5.125215    1.256684   -0.032613
C     -3.870675    1.405045    0.571055
C      2.773311   -1.513321   -0.496444
C      1.760658    0.637089    0.031613
C      1.186336   -1.439657    1.286509
C      0.382940   -1.837138   -1.051515
C     -4.235566   -0.487728   -1.395352
C      2.955410   -0.227515   -0.248061
C      1.460712   -2.080300   -0.069561
C      0.819920    0.043935    1.024484
C     -5.291728    0.307733   -1.012456
C     -2.794114    0.630072    0.215441
C     -2.987738   -0.323253   -0.778563
C     -0.713722   -0.978356   -0.578251
C     -0.529533   -0.035874    0.404410
C     -1.554997    0.796765    0.832356
F     -6.500246    0.136573   -1.621347
N     -1.357071    1.674623    1.735555
N     -1.956880   -1.090011   -1.143106
H      4.695125    2.475500   -0.799443
H      3.492041    1.644783   -1.816429
H      5.268467    1.248070   -1.962883
H      4.405617    0.884399    0.772392
H      5.101912   -0.372310   -0.302257
H     -5.932322    1.893866    0.288368
H     -3.739253    2.149705    1.341041
H      3.523375   -2.090440   -0.969591
H      2.103732    1.615320    0.428096
H      1.268755    0.867295   -0.957529
H      0.268716   -1.909943    1.686502
H      2.066319   -1.526265    1.920043
H     -0.048809   -2.773972   -1.482577
H      0.841537   -1.282081   -1.928827
H     -4.342851   -1.241498   -2.164498
H      1.541648   -3.171217    0.111159
H      0.861647    0.503774    2.010655
H     -0.424044    1.795518    2.194522
H     -2.066656    2.349615    2.110900
H     -2.067362   -1.821254   -1.892443
