56

C      7.704086    1.202784    1.190725
C      6.884497    0.970254    2.267794
C      7.128163    1.477906   -0.029317
C     -6.310128   -0.056671    1.484349
C     -1.240508   -0.204428   -0.491506
C      5.510698    1.000369    2.179723
C      5.754279    1.511123   -0.130770
C     -6.905867    1.169863    1.448553
C     -5.699450   -0.617105    0.398256
C     -0.480059   -1.469738   -0.169408
C      3.448017   -0.636932   -0.745277
C     -2.741564   -0.461709   -0.283823
C      3.086791   -2.118574   -0.785744
C      3.458002    1.316581    0.845756
C      1.418643   -0.084243    0.516324
C     -6.271337    1.333145   -0.880828
C     -7.481072    3.143275    0.135460
C      4.933563    1.277331    0.951146
C      2.944543   -0.050015    0.531899
C     -6.866584    1.843492    0.234701
C      0.986446   -1.196814   -0.385252
C     -5.672746    0.073989   -0.801391
C     -4.129363   -1.507789   -1.909227
N     -7.962297    4.202035    0.057997
N      1.791721   -2.392363   -0.224775
N     -3.112725   -1.511544   -1.168839
N     -5.046563   -0.445620   -1.952814
O     -4.400881   -2.615299   -2.768693
H      8.785355    1.171351    1.294847
H      7.331021    0.754365    3.228271
H      7.757835    1.662177   -0.881882
H     -6.332866   -0.595832    2.428402
H     -0.894150    0.620305    0.138868
H     -1.126655    0.052405   -1.563923
H      4.879411    0.811730    3.053962
H      5.280693    1.729689   -1.085556
H     -7.398029    1.645510    2.286214
H     -5.243622   -1.611507    0.487663
H     -0.851439   -2.337591   -0.725353
H     -0.652100   -1.673216    0.925946
H      3.027213   -0.101784   -1.622708
H      4.561930   -0.527509   -0.820189
H     -3.227386    0.500693   -0.533303
H     -2.891232   -0.679632    0.798107
H      3.888707   -2.733769   -0.324390
H      3.063654   -2.412514   -1.855112
H      3.124113    2.086337    0.121757
H      3.046408    1.600203    1.844781
H      1.050125   -0.181403    1.556125
H      1.110272    0.921813    0.108938
H     -6.231504    1.842086   -1.828677
H      3.288545   -0.729139    1.360783
H      1.120507   -0.863146   -1.435134
H      1.791846   -2.788594    0.712718
H     -5.300147   -0.008020   -2.885493
H     -3.686811   -3.308312   -2.923874
