30

C      1.014125   -1.301710   -0.525253
C      2.337104   -1.345539   -0.910941
C      1.369822    0.717204    0.721446
C     -2.246912    1.640232   -0.179155
C     -2.417548   -1.858170    0.288263
C      4.717440    1.287474   -0.461060
C      0.537354   -0.281777    0.281481
C     -1.782056    0.246799   -0.427655
C     -3.046342   -0.555927   -0.080448
C      3.163012   -0.330837   -0.458760
C      2.711500    0.693768    0.344277
C     -0.873854   -0.276388    0.665030
C     -3.558591    0.213781    1.053869
O     -4.359308   -0.179222    1.926421
O     -1.354142   -1.496399    1.069960
O     -3.013306    1.486094    1.026497
O      4.515940   -0.105771   -0.673714
O      3.792914    1.524874    0.605512
H      0.354228   -2.092341   -0.873171
H      2.694600   -2.148957   -1.541553
H      1.048012    1.537081    1.353386
H     -2.970663    1.914687   -0.956565
H     -1.430392    2.364452   -0.052216
H     -3.107096   -2.544114    0.819608
H     -2.024287   -2.318000   -0.647205
H      4.372333    1.821528   -1.367233
H      5.741911    1.531392   -0.164143
H     -1.428388    0.039600   -1.432882
H     -3.734295   -0.611744   -0.939935
H     -1.023113    0.427929    1.536141
