56

C      6.925901    0.356449    1.587811
C      5.840377   -0.296172    2.154386
C      7.094330    0.390048    0.233739
C     -5.638998   -1.412731    2.594368
C     -1.521558    0.241907   -1.475459
C      4.952783   -0.900579    1.294164
C      6.171458   -0.235939   -0.617930
C     -5.993129   -0.946260    3.836358
C     -5.388350   -0.517295    1.541351
C     -0.398747   -0.741936   -1.310489
C      3.435792    0.569845   -1.966957
C     -2.713247   -0.119581   -0.585784
C      2.344483    1.207697   -2.808827
C      4.086051   -1.580049   -0.953092
C      1.906132   -1.299579   -2.112380
C     -5.847224    1.290377    2.981245
C     -6.493295    0.913419    5.299941
C      5.085971   -0.889953   -0.078855
C      2.948670   -0.649475   -1.254445
C     -6.095371    0.409397    4.019175
C      0.727653   -0.351858   -2.210105
C     -5.487950    0.839896    1.719652
C     -4.706748    1.423329   -0.596506
N     -6.826712    1.340456    6.346238
N      1.104152    1.040836   -2.043288
N     -3.767760    0.701385   -0.695988
N     -5.239945    1.776462    0.700441
O     -5.379488    1.995381   -1.728420
H      7.607483    0.822831    2.263494
H      5.727206   -0.309902    3.227984
H      7.950935    0.906208   -0.190821
H     -5.556137   -2.470760    2.424403
H     -1.134071    1.257058   -1.192609
H     -1.801422    0.299918   -2.541966
H      4.094772   -1.418239    1.718985
H      6.344087   -0.187429   -1.689458
H     -6.181921   -1.644068    4.637597
H     -5.127472   -0.928305    0.588826
H     -0.700233   -1.781459   -1.546047
H     -0.002252   -0.719319   -0.261198
H      3.861839    1.336620   -1.315819
H      4.241352    0.240898   -2.671077
H     -2.919624   -1.218639   -0.783438
H     -2.249874   -0.099003    0.465553
H      2.550610    2.234370   -3.095167
H      2.210123    0.613715   -3.734798
H      3.729656   -2.458608   -0.363784
H      4.569263   -1.870635   -1.911942
H      2.351711   -1.558153   -3.092207
H      1.599065   -2.258811   -1.613861
H     -5.934018    2.343118    3.151910
H      2.486166   -0.400294   -0.264340
H      0.338627   -0.437836   -3.264635
H      1.251880    1.286346   -1.038124
H     -5.447598    2.787406    0.858144
H     -4.985385    1.935111   -2.635948
