60

C      8.280345   -2.195478   -0.655206
C      6.147865    1.504270   -0.563091
C      0.732955    1.043097   -0.858261
C      6.805020    0.299192   -0.559237
C      5.090866    1.732313    0.286272
C      0.064077    0.194797    0.219948
C     -6.617502   -0.374277    1.213097
C     -6.183592    0.482970   -0.988623
C     -7.962148   -0.455568    0.925929
C     -7.531523    0.407366   -1.292753
C     -3.603385   -1.447349   -1.230901
C      2.152361    1.336748   -0.351396
C     -2.667010   -0.635920   -2.096778
C     -4.268965    0.186392    0.559539
C     -2.114957   -0.934879    0.701637
C      5.384721   -0.505010    1.137272
C      7.157911   -2.011497    0.275526
C     -5.717995    0.098053    0.251268
C     -3.530303   -1.070959    0.212462
C      6.442353   -0.748923    0.295670
C     -8.394819   -0.058751   -0.334301
C     -1.333371   -0.103325   -0.262104
C      4.710038    0.723760    1.137181
C      2.635937    1.853649    1.978405
F     -9.723205   -0.140409   -0.614301
N     -1.311911   -0.781169   -1.544465
N      2.011978    2.036004    0.873530
N      3.613435    0.834301    2.057499
O      6.819478   -2.926926    1.042063
O      2.352332    2.656125    3.106534
H      9.039487   -1.371093   -0.553815
H      8.746757   -3.178868   -0.608074
H      7.878278   -2.064075   -1.699237
H      6.453796    2.293137   -1.236606
H      0.180179    1.984943   -0.999100
H      0.745058    0.518434   -1.816697
H      7.647527    0.101622   -1.228332
H      4.561495    2.680234    0.310119
H     -0.000912    0.841703    1.117488
H      0.666371   -0.706314    0.374250
H     -6.225073   -0.675912    2.195157
H     -5.467609    0.850261   -1.729832
H     -8.656558   -0.823383    1.677263
H     -7.871213    0.721875   -2.290335
H     -3.273529   -2.506656   -1.318994
H     -4.627667   -1.393479   -1.602354
H      2.626583    0.335972   -0.252739
H      2.616851    1.921645   -1.182126
H     -2.906438    0.453245   -2.068986
H     -2.721955   -1.037006   -3.121953
H     -3.801594    1.087655    0.125114
H     -4.195390    0.309706    1.667691
H     -1.653692   -1.958848    0.759811
H     -2.150218   -0.459522    1.708543
H      5.080775   -1.303328    1.813661
H     -4.003708   -1.908749    0.794052
H     -1.849667    0.871279   -0.425120
H     -1.216438   -1.816793   -1.335127
H      3.508984    0.149897    2.846524
H      1.428533    3.104660    3.157342
