41

C      5.159803    0.748977   -0.839523
C      4.133680   -0.300210   -1.168956
C     -5.342241   -1.205226   -0.141934
C     -4.053840   -1.699658    0.062126
C      2.709828    1.297391   -0.044736
C      1.579070   -0.680670   -0.836508
C      1.368186    0.100474    1.526704
C      0.366833    1.857608    0.045474
C     -4.344810    0.961257   -0.329675
C      2.809353    0.134283   -0.668115
C      1.534544    1.446579    0.867615
C      0.821736   -0.884893    0.475454
C     -5.458719    0.150441   -0.338171
C     -2.939381   -0.888117    0.070570
C     -3.056619    0.479554   -0.127367
C     -0.759007    0.883764    0.062486
C     -0.584638   -0.465660    0.264353
C     -1.641568   -1.362622    0.273133
F     -6.688071    0.692976   -0.542488
N     -1.465367   -2.616193    0.457232
N     -2.012310    1.327659   -0.131245
H      5.101208    1.014445    0.247704
H      6.190052    0.423637   -1.080286
H      4.986726    1.678937   -1.420201
H      4.121571   -0.447280   -2.274636
H      4.426196   -1.244855   -0.653384
H     -6.194681   -1.869969   -0.142450
H     -3.985830   -2.765283    0.214081
H      3.422818    2.092541   -0.177862
H      1.906150   -1.670931   -1.260810
H      0.942608   -0.225871   -1.618587
H      2.366814   -0.294403    1.797985
H      0.644015    0.101698    2.349753
H      0.594905    2.069457   -1.019296
H      0.001412    2.843905    0.458955
H     -4.426121    2.048261   -0.485750
H      1.780927    2.168038    1.695010
H      0.960434   -1.905439    0.825106
H     -0.535038   -3.077453    0.618159
H     -2.259412   -3.270984    0.457777
H     -2.181216    2.353831   -0.288510
