41

C     -4.596315   -0.071979   -1.825723
C     -4.394651   -0.033778   -0.333508
C      5.114319    1.084951   -0.958676
C      3.865134    1.604614   -0.690974
C     -2.658024   -1.372990    0.786748
C     -1.845751    0.506910   -0.464668
C     -1.192142    0.122432    1.945467
C     -0.297412   -1.890783    0.752198
C      4.295242   -1.071593   -0.513036
C     -2.961592   -0.332778    0.020004
C     -1.392990   -1.328906    1.583360
C     -0.860081    0.860777    0.629171
C      5.349963   -0.272205   -0.872984
C      2.809738    0.804290   -0.330766
C      3.026761   -0.578353   -0.237478
C      0.769354   -0.911522    0.384449
C      0.508695    0.437176    0.307131
C      1.523484    1.284663   -0.048731
Cl     6.927627   -0.967543   -1.206863
N      1.338027    2.548722   -0.148421
N      2.017723   -1.377634    0.110659
H     -4.212048   -1.013778   -2.271939
H     -5.710925   -0.051130   -1.988650
H     -4.202128    0.836174   -2.308484
H     -4.662733    0.978137    0.026715
H     -5.025054   -0.779204    0.175844
H      5.948544    1.703381   -1.241887
H      3.764572    2.660451   -0.778727
H     -3.302454   -2.216191    0.831881
H     -1.305162    0.018882   -1.328249
H     -2.263816    1.440606   -0.885407
H     -2.136336    0.545790    2.328095
H     -0.326224    0.291144    2.600627
H     -0.672575   -2.386137   -0.188558
H      0.174578   -2.730753    1.329829
H      4.478314   -2.135563   -0.445407
H     -1.530716   -1.898448    2.547919
H     -0.970989    1.916559    0.891862
H      0.367028    2.916358    0.063188
H      2.037685    3.267538   -0.416676
H      2.203329   -2.408286    0.173627
