74

C     -5.848136   -1.428841    1.819542
C     -3.075612   -2.396397    1.397888
C     12.272151   -0.256365   -0.316127
C     11.403897   -1.013997   -1.080557
C     11.716912    0.612206    0.586027
C     10.048389   -0.884217   -0.924503
C     10.347633    0.743990    0.744252
C     -9.026832    0.971391    0.106484
C     -7.855841    1.894454    0.357966
C      6.090453    1.431637    0.654025
C      5.804007   -0.835971    0.075068
C      7.458878    1.331661    0.511865
C      7.186244   -0.942037   -0.069893
C     -2.338216    2.129685   -0.193740
C     -0.984204    1.852225   -0.306462
C      3.796382    0.594233    0.621831
C     -4.412424   -1.955461   -0.682727
C      3.128896    1.032579   -0.656920
C     -5.884994   -1.795520   -0.811487
C     -1.408681   -0.453307    0.075236
C     -4.692121    1.458217    0.138539
C     -7.203274    0.110678   -1.454760
C     -4.814532   -0.611375    1.159696
C      5.242349    0.370106    0.443245
C     -7.998553    1.281380   -0.958274
C      9.478757   -0.010155   -0.016543
C      8.036638    0.120281    0.140807
C     -3.198053    1.096146    0.052647
C     -0.501992    0.569451   -0.175458
C     -2.779794   -0.225167    0.197497
C     -5.272576    0.185228   -0.049051
C      0.931698    0.289794   -0.298793
C     -3.683208   -1.381774    0.490924
N      1.725146    1.261888   -0.529534
N     -6.437669   -0.466845   -0.378998
O      1.442069   -0.990892   -0.172333
H     -5.951288   -1.192592    2.923605
H     -5.680163   -2.524224    1.808536
H     -6.872881   -1.158468    1.425347
H     -3.820678   -3.240612    1.472873
H     -2.154554   -2.859612    1.052683
H     -2.942770   -1.982754    2.420800
H     13.354179   -0.335822   -0.416117
H     11.856365   -1.693614   -1.786624
H     12.399188    1.217150    1.196571
H      9.402579   -1.490345   -1.536715
H      9.934570    1.437740    1.464482
H     -9.035010   -0.026435    0.551625
H    -10.010465    1.476840    0.088797
H     -8.078354    3.004005    0.423951
H     -7.251716    1.568029    1.198665
H      5.688583    2.411412    0.948851
H      5.153933   -1.676022   -0.093640
H      8.132076    2.163393    0.676309
H      7.633185   -1.895104   -0.361167
H     -2.724403    3.138629   -0.295786
H     -0.292528    2.645255   -0.498989
H      3.636907    1.430402    1.360836
H      3.310252   -0.290326    1.039565
H     -3.833985   -1.741543   -1.628526
H     -4.262336   -3.079509   -0.589354
H      3.288049    0.277329   -1.447246
H      3.598750    2.013792   -0.930460
H     -6.079877   -1.788039   -1.909650
H     -6.500814   -2.620993   -0.430216
H     -1.030606   -1.450118    0.174647
H     -4.833295    2.219375   -0.681376
H     -4.871764    2.014470    1.085077
H     -6.586855    0.389915   -2.330255
H     -7.943279   -0.640406   -1.840729
H     -4.337213   -0.002363    1.962368
H     -8.419742    1.926777   -1.767341
H     -4.735221   -0.033183   -1.050546
H      2.167393   -1.301333   -0.810392
