38

C      4.641157   -0.067009   -1.146155
C     -4.946041    0.248904   -0.631979
C     -3.712296    0.847355   -0.919044
C      3.285332   -0.716172    0.813977
C      2.074982    0.027909   -1.111915
C      1.758285    1.068640    1.171283
C      0.927496   -1.280300    1.345877
C     -3.874919   -1.325729    0.730561
C      3.356004   -0.273884   -0.420075
C      2.059920   -0.356041    1.594233
C      1.224608    0.945534   -0.275028
C     -5.043283   -0.842754    0.194522
C     -2.541325    0.366924   -0.384606
C     -2.641102   -0.729536    0.445234
C     -0.276419   -0.672955    0.734441
C     -0.146213    0.423218   -0.089426
C     -1.290307    0.940858   -0.649769
Cl    -6.600346   -1.579429    0.542504
N     -1.198884    1.960224   -1.431082
N     -1.510564   -1.215919    0.978372
H      4.857493   -0.876527   -1.871061
H      4.497041    0.863414   -1.766066
H      5.482792    0.155168   -0.466329
H     -5.844417    0.665117   -1.078671
H     -3.672191    1.703689   -1.572121
H      4.067440   -1.304499    1.243441
H      2.264596    0.510603   -2.108066
H      1.505686   -0.911034   -1.365307
H      2.666592    1.682716    1.198470
H      0.926703    1.497426    1.764501
H      0.579802   -1.762583    2.311044
H      1.270763   -2.177072    0.746237
H     -3.900712   -2.181456    1.385534
H      2.285867   -0.365062    2.695749
H      1.306123    1.957529   -0.667420
H     -1.995196    2.431018   -1.913490
H     -0.262253    2.390923   -1.637541
H     -1.582214   -2.049206    1.609170
