38

C     -4.588932    1.087972    0.287421
C      4.914874    0.622980    0.536424
C      3.690683    0.541185    1.209686
C     -3.228544   -0.476430   -1.038994
C     -1.984422    0.900769    0.480251
C     -1.722621   -1.612567    0.434682
C     -0.937552   -0.721233   -1.764937
C      3.749406    0.087172   -1.460627
C     -3.283082    0.472661   -0.123296
C     -2.048213   -1.370921   -1.015401
C     -1.180153   -0.289547    1.009083
C      4.927126    0.389047   -0.822646
C      2.513478    0.235934    0.551711
C      2.530107    0.001130   -0.816430
C      0.244655   -0.388998   -0.926294
C      0.184661   -0.162223    0.438072
C      1.287593    0.150104    1.203984
Cl     6.410953    0.469277   -1.747669
N      1.220490    0.362550    2.466190
N      1.433388   -0.302067   -1.537777
H     -4.857504    1.933752   -0.377877
H     -4.541146    1.399072    1.349640
H     -5.385673    0.335644    0.177893
H      5.827145    0.859554    1.046352
H      3.728777    0.731712    2.272692
H     -4.012341   -0.577710   -1.756145
H     -2.232430    1.613528    1.301267
H     -1.419192    1.479505   -0.276044
H     -0.890553   -2.347198    0.563353
H     -2.621311   -1.861466    0.998984
H     -1.276421    0.188887   -2.330082
H     -0.589368   -1.430429   -2.554781
H      3.780195   -0.091692   -2.519691
H     -2.312700   -2.378587   -1.449192
H     -1.241127   -0.294991    2.093370
H      2.073748    0.596950    3.000201
H      0.309690    0.312360    3.011048
H      1.526316   -0.465687   -2.568025
