38

C      4.523084    0.151716    1.304992
C     -4.843333    1.210939    0.397750
C     -5.031292   -0.144731    0.341176
C     -3.542842    1.684553    0.315055
C     -3.970924   -1.015130    0.206861
C      3.135634   -1.448698    0.025054
C      1.959051    0.332203    1.126701
C      1.800145   -0.049724   -1.362402
C      0.716517   -1.960785   -0.219477
C      3.226940   -0.367918    0.788248
C      1.948277   -1.480486   -0.886981
C      1.293928    0.762639   -0.151335
C     -2.465392    0.827015    0.180018
C     -2.675083   -0.541607    0.124557
C     -0.383910   -0.986299   -0.089477
C     -0.141011    0.382020   -0.037627
C     -1.160440    1.309008    0.097041
N     -0.906388    2.564649    0.149496
N     -1.673196   -1.416567   -0.005103
H      5.392507   -0.192701    0.738681
H      4.675873   -0.099033    2.372836
H      4.476315    1.257493    1.217727
H     -5.639101    1.928119    0.501964
H     -6.058437   -0.524876    0.406187
H     -3.431357    2.749125    0.362238
H     -4.125662   -2.077174    0.163146
H      3.886364   -2.215034    0.093553
H      1.349977   -0.383061    1.725293
H      2.165653    1.211704    1.779103
H      1.108536    0.070389   -2.193274
H      2.831084    0.327643   -1.573722
H      0.292644   -2.783320   -0.878881
H      0.926560   -2.508048    0.737030
H      2.257794   -2.119474   -1.753377
H      1.499937    1.815123   -0.300063
H     -1.672199    3.276149    0.256458
H      0.086387    2.917524    0.090502
H     -1.832640   -2.463346   -0.047333
