74

C     -4.724142    0.489446   -2.503690
C     -2.332318   -1.356115   -2.291904
C     10.294712   -0.591997   -2.843240
C      9.243967    0.109255   -3.355588
C     10.220363   -1.009068   -1.511909
C      8.137375    0.408952   -2.609501
C      9.093176   -0.697482   -0.770305
C     -8.679108   -0.601630    0.262016
C     -8.688331   -0.171310    1.689637
C      5.956250    0.797198    1.747292
C      4.531186    0.727254   -0.116117
C      7.019524    0.504672    0.915479
C      5.595792    0.429792   -0.977176
C     -1.216037    1.466498    1.446949
C     -0.027915    0.795616    1.629095
C      3.581024    1.231825    2.163650
C     -4.076999   -1.572477   -0.499640
C      2.979495   -0.046296    2.735595
C     -5.494171   -1.030603   -0.505008
C     -0.787189   -0.826742    0.074341
C     -3.467817    1.798498    0.497578
C     -6.490743    0.756111    0.827966
C     -3.735820    0.528057   -1.414961
C      4.688384    0.910689    1.221198
C     -7.944950    0.621966    0.594247
C      8.036330    0.006910   -1.282384
C      6.861607    0.317048   -0.450549
C     -2.148870    0.992808    0.603085
C      0.203702   -0.366320    0.942180
C     -1.989698   -0.178713   -0.132049
C     -4.314093    0.786021   -0.010792
C      1.451127   -1.081849    1.138340
C     -2.987479   -0.731611   -1.100366
N      2.432954   -0.907964    1.815692
N     -5.598178    0.410269   -0.203654
O      1.518818   -2.287694    0.321733
H     -4.506961    1.235423   -3.330472
H     -4.769995   -0.479271   -3.041330
H     -5.753910    0.811796   -2.163065
H     -1.869171   -2.316423   -1.932574
H     -3.109631   -1.636812   -3.005994
H     -1.583423   -0.661956   -2.680133
H     11.170003   -0.834318   -3.416222
H      9.265544    0.449148   -4.382204
H     11.021127   -1.568366   -1.046635
H      7.300201    0.972820   -3.033804
H      9.044903   -1.032300    0.278258
H     -8.167992   -1.514998   -0.035671
H     -9.681330   -0.468863   -0.231580
H     -9.553392    0.273592    2.181607
H     -8.065903   -0.793517    2.363090
H      6.100247    0.942691    2.827023
H      3.555045    0.812517   -0.537037
H      8.017384    0.416730    1.342681
H      5.436831    0.292666   -2.020713
H     -1.379502    2.378618    1.996495
H      0.704796    1.231028    2.334638
H      2.852244    1.816039    1.611258
H      3.936058    1.827058    3.024860
H     -3.761628   -1.999660    0.474050
H     -4.144303   -2.485781   -1.172365
H      3.867718   -0.603086    3.227944
H      2.265486    0.200025    3.560612
H     -5.913497   -1.496722    0.444176
H     -6.137973   -1.383498   -1.289898
H     -0.601578   -1.737028   -0.461957
H     -3.692586    2.224647    1.497299
H     -3.215638    2.667654   -0.146244
H     -6.270596    1.813621    1.123549
H     -6.191055    0.145432    1.745189
H     -2.968655    1.282371   -1.721064
H     -8.474760    1.612366    0.409345
H     -4.062559   -0.018289    0.780035
H      2.196522   -3.006371    0.564636
