41

C     -4.554815   -1.339371    0.054235
C     -4.287051    0.113126    0.429914
C      4.731789   -0.996775   -2.085175
C      5.116516   -1.335061   -0.800934
C      3.451876   -0.464520   -2.274141
C      4.266485   -1.153464    0.256930
C     -2.399684    0.598496    1.953970
C     -1.837837   -0.140398   -0.252968
C     -0.924253    2.005916    0.740205
C      0.048749    0.219968    2.155669
C     -2.837520    0.211269    0.771483
C     -1.048725    1.211781    2.032720
C     -0.862175    0.986691   -0.421356
C      2.579846   -0.270629   -1.241296
C      2.988714   -0.618626    0.044333
C      0.908382    0.070332    0.954052
C      0.496119    0.418737   -0.318188
C      1.296981    0.263476   -1.431278
N      0.903992    0.578827   -2.602682
N      2.163955   -0.444748    1.087217
H     -4.254682   -1.528820   -0.992447
H     -5.612528   -1.598727    0.146002
H     -3.981904   -1.962800    0.761804
H     -4.535019    0.712152   -0.476631
H     -4.942287    0.437216    1.236904
H      5.389675   -1.134206   -2.925333
H      6.110355   -1.744472   -0.680883
H      3.198168   -0.216665   -3.288959
H      4.550395   -1.411066    1.259485
H     -3.012474    0.469632    2.820137
H     -2.318018   -0.416469   -1.231448
H     -1.342041   -1.088470    0.087716
H     -1.803977    2.659556    0.630197
H      0.039970    2.534279    0.742008
H      0.737776    0.556764    2.987243
H     -0.312106   -0.782668    2.521269
H     -0.996802    1.981400    2.844887
H     -1.097765    1.535333   -1.333210
H     -0.035804    0.971900   -2.759218
H      1.494998    0.457400   -3.428199
H      2.522726   -0.722983    2.025968
