62

C     -3.321959   -3.734022    0.688702
C     -4.476119    3.672022   -0.114407
C     -3.389135    3.417690   -1.099980
C     -4.671606    2.649856    0.928058
C     -3.016947    1.999870   -1.304305
C      2.989040   -0.516462    0.864400
C      1.613373   -0.449616    0.604221
C     -0.297818   -0.474970   -1.011419
C      5.564117   -0.985357   -2.304700
C     -1.196363   -0.329461   -0.089846
C      4.212656   -0.920406   -2.569061
C      5.205792   -0.741268    0.038927
C     -4.718339    0.325882    1.639933
C      8.149589   -0.903157    0.344559
C     -2.514260   -2.454716    0.623961
C     -4.503927    1.222479    0.446206
C      3.834404   -0.673890   -0.213920
C      1.114097   -0.536842   -0.676709
C      6.077024   -0.898159   -1.014299
C     -3.107764    1.133322   -0.098033
C     -2.673996   -0.261923   -0.410555
C     -4.117324   -1.013153    1.523578
C      3.331458   -0.761928   -1.506015
C      8.002354    0.364760    1.091826
C     -3.458408   -1.337754    0.232776
C     -3.097949   -1.333691    2.531865
N      7.416535    1.393186    0.593218
N      2.021742   -0.692123   -1.688226
O      8.504751    0.500122    2.391639
O     -3.183636   -0.992151    3.753894
O      7.446953   -0.974997   -0.847797
O     -2.085891   -2.043546    1.906187
H     -2.664998   -4.621206    0.688365
H     -4.004611   -3.723992   -0.185828
H     -3.963966   -3.720876    1.595305
H     -4.235831    4.649814    0.399803
H     -5.452727    3.861517   -0.629909
H     -3.695867    3.850722   -2.075740
H     -2.454095    3.984005   -0.815241
H     -3.911899    2.794628    1.744665
H     -5.662329    2.793592    1.405978
H     -1.965366    1.935122   -1.692320
H     -3.666923    1.552960   -2.111841
H      3.373247   -0.447161    1.873139
H      0.947418   -0.326306    1.445639
H     -0.615481   -0.549235   -2.029613
H      6.261442   -1.110609   -3.144628
H     -0.971568   -0.243818    0.954580
H      3.845989   -0.991624   -3.586426
H      5.586704   -0.672672    1.043583
H     -4.318181    0.816637    2.566034
H     -5.833215    0.293219    1.802582
H      7.911281   -1.722983    1.055367
H      9.235439   -1.002028    0.101951
H     -1.671163   -2.555720   -0.087433
H     -5.206804    1.029710   -0.370631
H     -2.433559    1.582334    0.689175
H     -2.752643   -0.393734   -1.515772
H     -4.943308   -1.772181    1.670632
H     -4.208606   -1.811239   -0.457484
H      7.000630    1.447042   -0.347142
H      8.818552    1.424485    2.678216
