64

C     10.109719    0.715595    0.776104
C     -3.081033   -1.557454   -3.801293
C      9.188069   -0.474558    0.860606
C     -5.874942    1.249685    2.487434
C     -4.510586    1.891517    2.507068
C     -5.928186   -0.027153    1.735912
C     -3.972658    1.984789    1.087052
C      3.007494    1.915889   -0.648138
C      1.642740    2.050490   -0.811923
C     -0.666710    1.261359   -0.736485
C      4.448909   -1.667193    0.718185
C     -1.564827    0.305487   -0.482050
C      3.109771   -1.470021    0.534717
C      4.871347    0.520640   -0.004391
C     -4.880704   -1.569360    0.179679
C     -2.433447   -0.972380   -2.546790
C     -5.110288   -0.085971    0.500291
C      3.491350    0.715058   -0.190227
C      0.761133    1.034114   -0.535149
C      5.379700   -0.651514    0.446033
C     -3.764640    0.545631    0.625211
C     -3.025026    0.505572   -0.676743
C     -4.093798   -1.733524   -1.074517
C      2.589835   -0.285593    0.079387
C      7.784144   -0.012191    0.624827
C     -3.585116   -0.465802   -1.668569
C     -2.866961   -2.543929   -0.913430
N      1.260768   -0.119039   -0.092418
N      6.746904   -0.960493    0.657370
O      7.574344    1.191016    0.407830
O     -2.758307   -3.485314   -0.091495
O     -1.903772   -2.067716   -1.820180
H     11.142710    0.351011    0.914324
H      9.953841    1.192191   -0.203962
H      9.881039    1.410069    1.629566
H     -3.958192   -0.925118   -4.047485
H     -2.395049   -1.587589   -4.650025
H     -3.502528   -2.565611   -3.547172
H      9.270232   -0.934816    1.850528
H      9.471228   -1.187959    0.044490
H     -6.596761    2.012656    2.149712
H     -6.139537    1.035799    3.555836
H     -4.623188    2.918400    2.911973
H     -3.773138    1.330855    3.089368
H     -5.677008   -0.909109    2.391338
H     -7.001273   -0.206380    1.445573
H     -4.740023    2.456593    0.445520
H     -3.027181    2.550027    1.091181
H      3.671927    2.732717   -0.874354
H      1.289257    3.009749   -1.174877
H     -1.024626    2.214400   -1.097730
H      4.848969   -2.622175    1.084398
H     -1.148313   -0.630223   -0.121788
H      2.397004   -2.263405    0.748510
H      5.530683    1.340924   -0.240477
H     -4.300969   -1.975102    1.032028
H     -5.869987   -2.061081    0.165532
H     -1.705389   -0.194207   -2.769321
H     -5.613556    0.368418   -0.391792
H     -3.180230    0.059859    1.460847
H     -3.138029    1.531140   -1.138048
H     -4.700145   -2.249827   -1.875241
H     -4.333689    0.022119   -2.320351
H      7.046692   -1.961967    0.852903
