64

C     10.228939   -0.682491    0.965890
C     -3.242488    1.853190   -3.547788
C      9.332245    0.468119    0.602475
C     -5.260726    0.448439    2.473347
C     -4.024867   -0.315364    2.899595
C     -5.965019   -0.361077    1.402968
C     -2.981503   -0.377054    1.816048
C      3.135367   -1.932113   -0.200864
C      1.768347   -2.063114   -0.323461
C     -0.509106   -1.222836   -0.500800
C      4.698041    1.868657    0.032104
C     -1.393592   -0.241386   -0.553107
C      3.356043    1.666773   -0.090336
C      5.002880   -0.480324   -0.001091
C     -5.419818   -1.132285   -0.924397
C     -3.232942    1.508578   -2.068310
C     -4.938396   -0.907070    0.469980
C      3.614870   -0.651400   -0.126551
C      0.929621   -0.970036   -0.368922
C      5.555581    0.764931    0.079162
C     -3.649502   -0.073395    0.483134
C     -2.828020   -0.550593   -0.686032
C     -4.923178   -0.118207   -1.913270
C      2.754613    0.424466   -0.174329
C      7.895511    0.060071    0.521556
C     -3.441035    0.038876   -1.937971
C     -5.460232    1.229548   -1.658308
N      1.423015    0.278004   -0.294226
N      6.932154    1.029178    0.190684
O      7.633284   -1.116516    0.752104
O     -6.659169    1.594694   -1.577913
O     -4.395611    2.128158   -1.503598
H     10.916544   -0.405526    1.807519
H     10.898402   -0.933263    0.104106
H      9.652366   -1.565167    1.302383
H     -3.273461    0.930544   -4.181697
H     -4.124232    2.447848   -3.840792
H     -2.348811    2.421359   -3.848331
H      9.591693    0.849440   -0.424335
H      9.398621    1.315357    1.323898
H     -5.058294    1.480070    2.175780
H     -5.937143    0.464767    3.358549
H     -3.636093    0.223068    3.809883
H     -4.350045   -1.311256    3.254862
H     -6.776230    0.206241    0.918207
H     -6.471262   -1.211503    1.947653
H     -2.475686   -1.371216    1.802684
H     -2.245331    0.441795    2.038967
H      3.810925   -2.793434   -0.163762
H      1.382184   -3.083656   -0.383039
H     -0.857656   -2.234315   -0.556802
H      5.104088    2.867152    0.093570
H     -0.993068    0.760280   -0.492853
H      2.706823    2.533536   -0.125186
H      5.621978   -1.351003    0.021072
H     -5.127089   -2.138461   -1.317874
H     -6.527662   -1.104771   -0.947615
H     -2.317641    1.889326   -1.580084
H     -4.616818   -1.914206    0.869261
H     -3.860599    0.999307    0.472088
H     -2.970049   -1.648999   -0.754923
H     -5.287970   -0.443800   -2.919772
H     -3.026778   -0.526985   -2.817830
H      7.262985    2.041051    0.005365
