69

C     -3.173411    0.060809   -2.658639
C     -6.601602    2.236518    1.775656
C     -5.149748    2.495758    1.996185
C     -6.845748    1.378751    0.547538
C     -4.311814    1.216249    2.028284
C      1.804324    0.051175    1.947035
C      0.455534   -0.133360    1.610894
C      9.080461    2.200348   -1.565245
C     10.327387    1.625489   -2.115581
C     -1.304598   -0.914192    0.106984
C      4.696457   -1.234249   -0.649301
C     -2.332604   -0.551794    0.844056
C      3.364288   -1.401841   -0.952363
C      4.135453   -0.204104    1.394995
C     -6.484786   -0.898274   -0.234982
C      7.426840   -0.941447   -0.128336
C     -4.357178   -0.452369   -1.923454
C     -6.049171    0.107393    0.756294
C      2.793394   -0.372709    1.090143
C      0.092866   -0.734367    0.432512
C      9.293734    0.676123   -1.568639
C      5.108525   -0.629797    0.534861
C     -4.586296    0.497384    0.697654
C     -3.745920   -0.728003    0.524339
C     -5.499518   -1.951633   -0.609809
C      2.380736   -0.974680   -0.089108
C      8.794085   -0.689992    0.340582
C     -4.076368   -1.367565   -0.772084
C     -5.756400   -2.286117   -2.059231
N      1.074313   -1.133544   -0.375486
N      9.607854    0.036651   -0.322443
O      9.200756   -1.258035    1.529716
O     -6.470967   -3.213027   -2.514027
O      6.467257   -0.482086    0.798179
O     -5.036581   -1.353540   -2.818348
H     -2.504172   -0.785077   -2.935612
H     -2.638115    0.890675   -2.160273
H     -3.534999    0.475643   -3.631026
H     -6.982352    1.660714    2.648303
H     -7.111181    3.191859    1.653792
H     -5.038324    3.018580    2.966289
H     -4.703348    3.130638    1.198055
H     -6.475971    1.939678   -0.332277
H     -7.932076    1.192424    0.500394
H     -4.598940    0.566121    2.860430
H     -3.256936    1.576616    2.077336
H      2.090078    0.520629    2.867377
H     -0.237858    0.234941    2.351874
H      8.322873    2.616179   -2.255234
H      9.162883    2.672028   -0.558585
H     10.456409    1.626258   -3.208550
H     11.259334    1.732606   -1.521381
H     -1.512567   -1.402449   -0.839519
H      5.457170   -1.587769   -1.362667
H     -2.110311   -0.074706    1.785643
H      3.075358   -1.872122   -1.874265
H      4.414327    0.270591    2.325871
H     -6.898929   -0.377891   -1.143330
H     -7.371922   -1.438997    0.198603
H      7.269869   -2.045522   -0.220814
H      7.185776   -0.513147   -1.106086
H     -5.090776    0.339797   -1.720065
H     -6.259941   -0.200676    1.821089
H      8.695433    0.109610   -2.327246
H     -4.377516    1.277667   -0.070774
H     -4.132236   -1.452465    1.316040
H     -5.492945   -2.839848    0.019923
H     -3.463888   -2.200034   -1.096283
H     10.014242   -0.928473    2.020948
