50

C      3.876532    3.649984    1.652327
C     -0.758422   -2.147812   -1.305522
C     -4.896618    0.711641   -1.307357
C     -5.275319    0.066860   -0.013013
C     -3.811495   -0.012377   -2.053873
C     -4.121006   -0.690002    0.636365
C      4.359511   -1.467778   -1.131121
C      4.329285   -1.833828    0.312056
C     -2.438104    0.461567   -1.677451
C     -2.910400    0.178643    0.851259
C      2.993088    1.483641    2.704342
C      3.388791    2.229557    1.431995
C     -0.028376   -1.106592   -0.549199
C      3.431360   -2.587755   -0.560658
C      1.967697    1.913218    1.679250
C      1.325149   -1.200082   -0.271875
C      1.270934    0.849004    0.895173
C     -0.704041   -0.009770   -0.083813
N      2.041426   -2.323524   -0.753794
N      1.905924   -0.216533    0.436898
N     -0.035645    0.955621    0.636219
N     -2.088720    0.217348   -0.315593
H      3.597292    4.248513    0.750096
H      3.322124    4.097458    2.502556
H      4.963591    3.689606    1.832649
H     -0.574787   -2.114746   -2.389156
H     -1.835565   -2.030367   -1.113334
H     -0.470470   -3.175698   -0.980342
H     -5.816763    0.759783   -1.950181
H     -4.618930    1.769233   -1.103447
H     -5.669259    0.827010    0.687485
H     -6.089279   -0.683351   -0.138446
H     -3.926985    0.218466   -3.150856
H     -3.865606   -1.107229   -1.947274
H     -4.504821   -1.014153    1.651946
H     -3.868212   -1.576246    0.024672
H      5.217741   -1.782186   -1.729600
H      3.864129   -0.546042   -1.483828
H      4.016913   -1.038700    1.008982
H      5.253350   -2.353336    0.683145
H     -1.698859   -0.019775   -2.347254
H     -2.390164    1.566464   -1.904833
H     -2.324801   -0.214130    1.734640
H     -3.255023    1.219104    1.142939
H      3.043313    2.027345    3.670441
H      3.157379    0.397755    2.749505
H      4.013086    1.622631    0.749330
H      3.796123   -3.617765   -0.854820
H      1.333982    2.759827    2.011817
H      1.508950   -3.050507   -1.319443
