68

C     -3.083974    1.577380    2.652744
C     11.221177   -0.444486    0.420959
C     10.611378   -0.768287   -0.788742
C     10.471509   -0.474195    1.569516
C     -5.657835   -2.318785   -1.961469
C     -4.195247   -2.066250   -2.158923
C      9.284936   -1.111666   -0.837359
C      9.143458   -0.822388    1.489380
C     -6.319627   -1.480316   -0.921033
C     -3.859750   -0.591225   -2.157733
C      2.018342    1.768142   -0.349348
C      0.636563    1.650398   -0.388796
C     -1.484513    0.325388   -0.301171
C      4.204211   -1.635912    0.178007
C     -2.291557    1.345521   -0.465350
C      2.834053   -1.739245    0.137146
C      4.132369    0.690112   -0.126057
C     -6.511900    0.714204    0.180159
C      7.078917   -1.515795    0.276267
C     -4.386966    1.336213    1.930606
C      8.516526   -1.149684    0.285776
C     -5.814971   -0.066060   -0.869757
C      2.762040    0.628452   -0.172322
C     -0.031325    0.462591   -0.261415
C      4.890132   -0.440108    0.050305
C     -4.310636   -0.105481   -0.761066
C     -3.788270    1.247918   -0.513851
C     -5.919987    2.102128    0.358676
C      2.076354   -0.578146   -0.043213
C     -4.429765    2.000106    0.580776
C     -6.350921    2.543515    1.735704
N      0.742619   -0.654383   -0.086135
O     -7.357468    3.215334    2.050502
O      6.259260   -0.362980    0.094520
O     -5.395003    2.053008    2.628585
H     -3.267936    1.956699    3.680560
H     -2.463462    2.330460    2.136136
H     -2.513203    0.614223    2.803523
H     12.262213   -0.169633    0.497427
H     11.210505   -0.739913   -1.673523
H     10.912565   -0.227037    2.537197
H     -6.163200   -2.180425   -2.947860
H     -5.781113   -3.384723   -1.680049
H     -3.887594   -2.511542   -3.116847
H     -3.564621   -2.529847   -1.360167
H      8.849055   -1.354841   -1.785928
H      8.530733   -0.854092    2.375023
H     -6.246950   -1.897002    0.105026
H     -7.408631   -1.434059   -1.159269
H     -2.808539   -0.436076   -2.332159
H     -4.523674   -0.113405   -2.913991
H      2.534445    2.703840   -0.450088
H      0.104270    2.573897   -0.529448
H     -1.948106   -0.658366   -0.178849
H      4.766598   -2.568261    0.321008
H     -1.839813    2.327514   -0.573460
H      2.297750   -2.675008    0.237096
H      4.615614    1.661884   -0.232772
H     -6.575085    0.192296    1.161776
H     -7.560416    0.868679   -0.146417
H      6.885308   -2.276432   -0.509678
H      6.842185   -2.013501    1.245056
H     -4.685892    0.285844    1.926701
H     -6.043157    0.404675   -1.859905
H     -3.959387   -0.886727   -0.059992
H     -4.042065    1.834727   -1.458990
H     -6.213057    2.807156   -0.415717
H     -4.009471    3.013978    0.712827
