56

C     -1.319078    0.436824   -2.525927
C     -4.508345   -2.182783    1.608363
C     -3.114600   -2.677154    1.369440
C     -4.828732   -0.925021    0.829956
C     -2.118313   -1.554107    1.688706
C      4.152661   -1.095596    0.946211
C      6.762705    0.604011   -1.717972
C      2.830851   -0.703233    0.916206
C      0.930042    0.661814   -0.008333
C     -0.017163    0.229456    0.755668
C      5.436633    0.974168   -1.722264
C      6.374425   -0.921965    0.079653
C     -4.133927    1.383350    0.409320
C     -2.279815    1.124506   -1.631749
C     -3.749442    0.115768    1.050948
C      5.040610   -0.533757    0.057848
C      7.227422   -0.342825   -0.817099
C      2.341395    0.227955    0.040073
C     -2.413666   -0.466994    0.642964
C     -1.430676    0.661651    0.707830
C     -3.054015    2.370921    0.117448
C      4.539839    0.401363   -0.819174
C     -1.746507    1.650183   -0.341272
C     -3.386720    3.031634   -1.178505
N      8.594994   -0.751126   -0.783451
N      3.240921    0.758136   -0.816966
O     -4.088087    4.053872   -1.299789
O     -2.795365    2.332575   -2.223322
H     -1.790960    0.011035   -3.437545
H     -0.866916   -0.418810   -1.988527
H     -0.475205    1.099235   -2.839221
H     -5.206352   -2.968608    1.240397
H     -4.701903   -2.008439    2.673544
H     -2.935006   -3.560780    1.977352
H     -2.991427   -2.865853    0.270219
H     -4.943790   -1.179816   -0.244513
H     -5.772070   -0.499504    1.226400
H     -1.128793   -1.991078    1.566518
H     -2.307728   -1.151164    2.689618
H      4.540986   -1.827001    1.633191
H      7.492773    1.034457   -2.413687
H      2.150778   -1.155931    1.621214
H      0.663022    1.428498   -0.756448
H      0.290610   -0.533384    1.504326
H      5.098569    1.703839   -2.422618
H      6.696685   -1.673920    0.809342
H     -4.839687    1.907477    1.126472
H     -4.803331    1.187005   -0.480273
H     -3.195666    0.486251   -1.494894
H     -3.687616    0.243647    2.168684
H     -2.458823   -1.000980   -0.315417
H     -1.694970    1.185453    1.697951
H     -2.831199    3.073398    0.919252
H     -1.034816    2.450915   -0.523546
H      9.385361   -0.073560   -0.696501
H      8.859429   -1.766009   -0.846102
