56

C     -1.742475    2.022937    2.901795
C     -4.023507   -2.288019   -0.891592
C     -2.865970   -2.528811   -1.834018
C     -4.637489   -0.917809   -1.070911
C     -1.725752   -1.554759   -1.586682
C      4.418183    0.789945    1.468056
C      6.177957   -1.617502   -1.372145
C      3.068759    1.053619    1.361937
C      0.874178    0.860790    0.291972
C      0.051781    0.428813   -0.628466
C      4.843082   -1.332082   -1.441697
C      6.396966   -0.296467    0.613663
C     -3.853912    1.472009   -1.111782
C     -1.934610    1.002656    1.774310
C     -3.553696    0.039102   -1.414162
C      5.036877   -0.016395    0.527287
C      6.958567   -1.102551   -0.347266
C      2.295253    0.540752    0.342626
C     -2.275844   -0.439071   -0.751503
C     -1.367340    0.758256   -0.664904
C     -3.299690    1.993368    0.150136
C      4.245498   -0.517038   -0.480820
C     -1.862429    1.636718    0.422978
C     -4.082251    1.541796    1.339776
N      8.353864   -1.436366   -0.325866
N      2.924645   -0.234842   -0.549899
O     -5.213046    1.985902    1.694231
O     -3.296862    0.562587    1.928207
H     -2.331543    1.711180    3.768621
H     -0.687860    2.086987    3.219990
H     -2.019391    3.019407    2.495533
H     -3.749676   -2.503177    0.159247
H     -4.808220   -3.024121   -1.162789
H     -2.468918   -3.534943   -1.598546
H     -3.213839   -2.535443   -2.868970
H     -5.371177   -0.921028   -1.919039
H     -5.193664   -0.622096   -0.178576
H     -0.875944   -2.017225   -1.064191
H     -1.429900   -1.181265   -2.610986
H      5.033845    1.183571    2.258397
H      6.662956   -2.248876   -2.108490
H      2.556140    1.691471    2.097828
H      0.429023    1.501441    1.056916
H      0.452058   -0.208873   -1.404690
H      4.233223   -1.730649   -2.236999
H      6.978636    0.111343    1.412130
H     -4.957185    1.586623   -1.090426
H     -3.509386    2.141117   -1.948972
H     -1.327782    0.108946    1.908331
H     -3.384547   -0.033938   -2.527181
H     -2.542362   -0.860639    0.235519
H     -1.527574    1.331463   -1.629919
H     -3.369564    3.103209    0.140675
H     -1.211226    2.544435    0.471199
H      8.770633   -2.007969    0.444465
H      8.952506   -1.098485   -1.095491
