68

C     -2.693567   -1.588312    2.862205
C      7.219328    1.162222   -1.378409
C      6.713583    2.153858    0.808401
C     -5.362298    2.591376   -1.250909
C     -3.928940    2.587384   -1.664700
C     -6.078604    1.303381   -1.537790
C     -3.299284    1.217037   -1.630784
C      2.651847   -1.575356   -1.964352
C      1.273671   -1.651462   -2.038378
C     -0.989603   -1.270824   -1.161762
C      4.363241    0.153303    1.350755
C     -1.829844   -0.827793   -0.241805
C      2.991724    0.064120    1.250291
C      4.621929   -0.900661   -0.742232
C     -6.101615   -0.628499    0.054770
C     -3.886942   -1.158457    2.042675
C     -5.371384    0.090938   -1.032356
C      3.232247   -0.997128   -0.856065
C      0.452243   -1.169007   -1.041632
C      5.200651   -0.331581    0.348356
C     -3.956490    0.421483   -0.544163
C     -3.276826   -0.944272   -0.390354
C     -5.405945   -1.896848    0.423755
C      2.397352   -0.510845    0.148957
C     -3.940103   -1.741962    0.685987
C     -5.898073   -2.277044    1.797286
C      8.729062    0.788865    0.466317
C      7.294943    0.928077    0.098222
N      9.133182   -0.302471    1.007700
N      1.058027   -0.612691    0.022004
O     -6.914433   -2.999808    1.951074
O      9.639213    1.809348    0.238698
O     -5.046078   -1.695109    2.697007
O      6.567703   -0.200552    0.531673
H     -2.185531   -2.422668    2.371304
H     -1.970570   -0.750928    2.977500
H     -3.001214   -1.855619    3.913795
H      7.096735    0.218457   -1.908970
H      6.415705    1.913689   -1.608334
H      8.169314    1.624393   -1.767244
H      7.305302    3.045763    0.534365
H      6.727484    2.007597    1.888487
H      5.683016    2.329142    0.392862
H     -5.516268    2.876424   -0.191199
H     -5.880603    3.389438   -1.857378
H     -3.358878    3.216326   -0.928195
H     -3.748560    3.079283   -2.655388
H     -6.262104    1.270048   -2.644707
H     -7.072326    1.354900   -1.063430
H     -2.212371    1.351624   -1.484670
H     -3.438475    0.670977   -2.581298
H      3.297215   -1.952534   -2.743823
H      0.783193   -2.102872   -2.901489
H     -1.418154   -1.729570   -2.041817
H      4.781161    0.612726    2.233976
H     -1.379938   -0.368207    0.638619
H      2.361697    0.454661    2.055220
H      5.263711   -1.283440   -1.532265
H     -6.241683   -0.028704    0.969610
H     -7.110421   -0.908983   -0.352436
H     -3.979473   -0.071740    2.110393
H     -5.240680   -0.623152   -1.876969
H     -3.952454    1.000267    0.375731
H     -3.487127   -1.471578   -1.356395
H     -5.586691   -2.730039   -0.272298
H     -3.483682   -2.751632    0.690564
H      8.486276   -1.083511    1.192702
H     10.596477    1.728752    0.559580
