61

C     -2.576979   -2.834371   -2.733678
C     -5.045679    0.897008    2.974440
C     -3.826785    0.029006    3.027894
C      9.760620    1.095476    0.208758
C     -5.088867    1.591565    1.607961
C     -2.696355    0.573180    2.175244
C      8.458413    1.395427    0.313089
C      3.114881   -1.602740   -0.267917
C      5.431856    1.716642    0.465880
C      1.729720   -1.474001   -0.202388
C     -0.315540   -0.090829    0.179058
C     -1.216009   -1.027653   -0.021721
C      4.034017    1.798318    0.520500
C     10.079723   -0.222713   -0.113775
C      5.296959   -0.575977   -0.077768
C     -4.855600    0.992972   -0.821459
C     -2.457840   -1.407085   -2.313353
C     -4.577602    0.595729    0.606296
C      3.898775   -0.504683   -0.025615
C      6.062458    0.536964    0.168548
C      1.126716   -0.277719    0.098207
C     -3.044565    0.520261    0.704953
C     -2.685738   -0.803327    0.068613
C     -4.258047    0.003960   -1.735461
C      3.285489    0.687828    0.274341
C      7.510029    0.485958    0.119967
C     -3.436656   -1.083543   -1.179843
C     -3.388738    0.600321   -2.785572
N      1.930012    0.783288    0.331185
O     -3.252167    1.806901   -3.104377
O     -2.743080   -0.486412   -3.354358
S      8.457186   -0.995807   -0.257396
H     -2.782066   -2.963856   -3.813633
H     -3.391050   -3.350018   -2.145215
H     -1.655721   -3.406775   -2.500087
H     -5.949661    0.227718    2.977555
H     -5.119355    1.630674    3.789410
H     -4.068389   -0.978966    2.602408
H     -3.432270   -0.146849    4.035584
H     10.611287    1.841228    0.365284
H     -4.442317    2.480229    1.701816
H     -6.097543    1.941301    1.368073
H     -2.558114    1.630427    2.479327
H     -1.805502   -0.058969    2.402356
H      8.155528    2.456686    0.573902
H      3.578400   -2.552184   -0.506111
H      6.034197    2.605452    0.662818
H      1.142248   -2.338562   -0.393931
H     -0.739658    0.897809    0.426436
H     -0.832633   -2.031433   -0.267015
H      3.571272    2.743229    0.757596
H     11.057233   -0.719615   -0.256928
H      5.734804   -1.525627   -0.315368
H     -4.455022    2.036929   -0.959594
H     -5.961543    1.091461   -0.914273
H     -1.409998   -1.215589   -2.031289
H     -4.980084   -0.400312    0.823883
H     -2.680325    1.399181    0.171323
H     -3.020460   -1.569399    0.835782
H     -5.115510   -0.452853   -2.322225
H     -4.098356   -1.995260   -1.068662
