78

C      4.954978    0.220440   -3.332868
C     -5.488221   -1.653024    1.251477
C     -5.484140    0.773243    0.919458
C    -12.098023    0.525654   -0.578918
C    -11.207571    0.859254   -1.576618
C    -11.632171    0.161569    0.673001
C      6.956794    2.309624    2.428933
C      5.943782    1.514189    3.223145
C      7.809014    1.369450    1.608093
C     -9.863276    0.829129   -1.324889
C    -10.276040    0.134778    0.915136
C      4.989913    0.766102    2.314340
C     -0.740241   -0.501644    0.976665
C      0.627989   -0.530781    0.829188
C      2.654501   -0.723196   -0.575725
C     -3.143901   -0.900215   -2.332477
C      3.538550   -0.608309    0.378393
C     -1.774204   -0.930053   -2.483332
C     -2.930307   -0.610153   -0.018874
C      7.772458   -0.606680    0.167197
C      5.581762    0.444480   -1.945903
C      7.061129    0.095400    1.245954
C     -1.534221   -0.635633   -0.133703
C     -9.374890    0.468634   -0.082172
C      1.192389   -0.691491   -0.409962
C     -3.751816   -0.740817   -1.106483
C      5.641365    0.519555    0.949342
C      4.988390   -0.632229    0.265570
C      7.017583   -1.190251   -0.954741
C     -0.941661   -0.795852   -1.367140
C      5.574410   -0.782261   -1.097243
C      7.596730   -0.607026   -2.219559
C     -7.258469   -0.585130   -0.052398
C     -5.805383   -0.554373    0.264189
N      0.387282   -0.820112   -1.478294
N     -7.998255    0.433068    0.192333
O      8.403964   -1.092604   -3.029673
O     -7.831761   -1.718858   -0.617655
O      6.977224    0.662713   -2.255469
O     -5.129084   -0.711080   -0.958162
H      3.907447    0.634735   -3.344451
H      5.501692    0.766915   -4.114512
H      4.950638   -0.843438   -3.571320
H     -6.416699   -2.261880    1.427745
H     -5.169652   -1.274849    2.241664
H     -4.756656   -2.375152    0.840854
H     -4.714255    1.349915    0.354092
H     -5.151511    0.677557    1.961209
H     -6.382981    1.414902    0.929742
H    -13.163999    0.544707   -0.762596
H    -11.518541    1.150219   -2.570184
H    -12.334571   -0.106223    1.474899
H      6.456210    3.056578    1.766997
H      7.598325    2.853547    3.122306
H      6.480597    0.863276    3.923421
H      5.352746    2.232502    3.826438
H      8.069247    1.866365    0.649941
H      8.758074    1.137544    2.145202
H     -9.164021    1.087923   -2.098096
H     -9.940941   -0.154491    1.905631
H      4.074041    1.379393    2.173071
H      4.768856   -0.197580    2.793890
H     -1.215075   -0.376251    1.942099
H      1.234680   -0.420181    1.743755
H      3.009542   -0.863560   -1.596304
H     -3.811996   -1.003921   -3.197086
H      3.148447   -0.476236    1.401612
H     -1.348277   -1.055170   -3.449362
H     -3.300332   -0.481299    0.974823
H      8.634003    0.039041   -0.190435
H      8.332126   -1.471162    0.651485
H      5.118092    1.334098   -1.537643
H      7.060928   -0.501050    2.209819
H      5.626044    1.470569    0.427601
H      5.362530   -1.551356    0.835364
H      7.072959   -2.306304   -1.005050
H      5.053644   -1.582019   -1.662572
H     -8.587932   -1.604751   -1.294205
