67

C     -2.860271    1.651098   -2.950046
C     -5.704337   -1.423060    3.448037
C     -4.751455   -0.299160    3.664615
C      8.706108   -0.684684   -2.348039
C     -6.176224   -1.398109    2.018041
C      7.366204   -1.010333   -2.129764
C      9.331888    0.220176   -1.501501
C     -3.593554   -0.392726    2.746589
C      2.319913    1.117622    0.201485
C      4.671979   -2.001757   -1.033515
C      0.989000    0.866651    0.382113
C     -1.034283   -0.493858    0.327292
C     -1.854268    0.522316    0.350742
C      3.302069   -2.237976   -0.810388
C      4.450185    0.268632   -0.416457
C      7.316526    0.432217   -0.286708
C     -5.878533   -0.492722   -0.229630
C     -3.282503    0.511035   -2.033405
C      6.638094   -0.479597   -1.118772
C      5.263440   -0.797082   -0.852264
C     -5.497916   -0.310604    1.234711
C      3.117328    0.056106   -0.196913
C      8.628072    0.782709   -0.462191
C      0.415869   -0.386695    0.185238
C     -3.967898   -0.538845    1.262370
C     -3.303766    0.540414    0.491565
C     -5.379475    0.722138   -0.944864
C      2.532243   -1.183302   -0.387223
C     -3.923216    1.033715   -0.755749
C     -5.535905    0.491415   -2.388568
C      9.284456    1.729158    0.483317
F      8.857984    3.011432    0.311414
F      8.822761    1.330315    1.758156
F     10.631886    1.599369    0.522347
N      1.211481   -1.386486   -0.196873
O     -6.529419    0.812368   -3.069198
O     -4.340613   -0.139287   -2.748428
H     -2.155982    1.239185   -3.699894
H     -3.792116    2.000783   -3.470664
H     -2.459144    2.520175   -2.408323
H     -5.292595   -2.420247    3.695409
H     -6.554568   -1.269168    4.178214
H     -4.341085   -0.406301    4.709751
H     -5.302669    0.662557    3.582831
H      9.292228   -1.101749   -3.157195
H     -7.273052   -1.197761    2.051626
H     -6.029331   -2.369463    1.514967
H      6.959591   -1.725415   -2.852605
H     10.378687    0.493844   -1.665326
H     -3.028317    0.587073    2.821035
H     -2.889055   -1.172998    3.095268
H      2.732323    2.093152    0.367930
H      5.255968   -2.835488   -1.372368
H      0.383010    1.719956    0.723925
H     -1.484992   -1.466523    0.418167
H     -1.381217    1.506977    0.228965
H      2.881008   -3.215180   -0.961760
H      4.903754    1.226527   -0.276103
H      6.731526    0.857954    0.524056
H     -5.399498   -1.399167   -0.605742
H     -6.978983   -0.488155   -0.337709
H     -2.506726   -0.219060   -1.857875
H     -5.726571    0.698254    1.593734
H     -3.827834   -1.561847    0.894417
H     -3.445623    1.461118    1.226283
H     -6.025298    1.575296   -0.656609
H     -3.867289    2.163065   -0.831939
