41

C     -3.139552    1.387885   -0.005492
C     -0.829389   -2.876798   -0.465993
C     -1.710723    1.877061    0.106020
C      0.500942   -2.248342   -0.266012
C      3.736901    0.753391   -0.707128
C      3.516066    2.011660   -0.421895
C     -3.087970   -0.054849   -0.358962
C     -1.934573   -1.984123   -0.873939
C      0.283553    1.606124    1.447666
C     -1.038232    0.972437    1.117612
C      0.465432   -0.900664    0.397326
C      2.744482   -0.287072   -0.431708
C      2.252712    2.380717    0.180720
C     -0.920902   -0.435321    0.627262
C      1.333820    0.104611   -0.319287
N     -1.758806   -0.584192   -0.545024
N      1.282162    1.360234    0.444697
O      3.232480   -1.036391    0.637225
O      2.030257    3.588819    0.461257
H     -3.570741    1.473259    1.029227
H     -3.737960    2.007116   -0.703465
H     -0.708654   -3.658895   -1.273892
H     -1.079970   -3.485820    0.448748
H     -1.265155    1.767699   -0.905029
H     -1.735570    2.911145    0.459147
H      0.949134   -2.094125   -1.292305
H      1.119368   -2.980811    0.313869
H      4.719018    0.479816   -1.177530
H      4.289709    2.781459   -0.640851
H     -3.611351   -0.181954   -1.340876
H     -3.637520   -0.705879    0.350776
H     -2.853583   -2.341090   -0.340229
H     -2.198623   -2.056994   -1.959864
H      0.603207    1.286118    2.466437
H      0.129853    2.703298    1.510279
H     -1.657810    0.995758    2.033851
H      0.942096   -1.031518    1.415169
H      2.812443   -1.010120   -1.306553
H     -1.373151   -1.138173    1.391220
H      0.898357    0.243149   -1.333546
H      4.008246   -1.598627    0.331908
