73

C     -5.132009    2.653778    3.080281
C     -6.476183   -3.496409   -1.015952
C     -6.786935   -2.201777   -1.722897
C     -6.342547   -3.319468    0.483427
C     -5.753590   -1.128998   -1.482230
C      0.955199   -0.653500    1.450995
C     -0.405172   -0.486859    1.213297
C     -2.305452    0.448155   -0.056615
C      3.591743    1.241997   -1.034982
C     -3.226627   -0.110049    0.674353
C      2.236335    1.387831   -1.229936
C     10.222295    0.903577   -0.778975
C      8.528529    1.935936   -2.293939
C     11.142579    0.919026   -1.957791
C      9.347888    1.247046   -3.396040
C      3.213368   -0.166134    0.825247
C     -6.027838   -1.675330    2.263692
C      6.369919    0.959583   -0.683613
C     -4.392956    1.635600    2.236933
C     -6.286447   -1.826298    0.802706
C      1.853956   -0.015156    0.623831
C     -0.904852    0.281099    0.196991
C      4.092424    0.466988   -0.010179
C     -5.215048   -1.238537   -0.069382
C     -4.688198    0.065435    0.407036
C     -5.692651   -0.276235    2.688705
C      1.352733    0.753985   -0.393123
C      7.778932    0.666407   -0.312562
C     -5.366939    0.670349    1.585984
C     -4.487035   -0.243449    3.550944
N      0.040281    0.886839   -0.585307
N      8.851378    1.151074   -1.091911
O      8.049698   -0.020128    0.702244
O     -4.309201   -1.081101    4.491598
O     10.660901    1.484919   -3.108439
O      5.473025    0.320773    0.180432
O     -3.691255    0.793201    3.138478
H     -4.369215    3.326483    3.532973
H     -5.611521    2.104826    3.921445
H     -5.852874    3.253870    2.500022
H     -5.547965   -3.915806   -1.448871
H     -7.337654   -4.167812   -1.179914
H     -6.839743   -2.437560   -2.811702
H     -7.792213   -1.870034   -1.397110
H     -7.135251   -3.843102    1.053528
H     -5.369910   -3.742654    0.782132
H     -4.926455   -1.297375   -2.227142
H     -6.248659   -0.138645   -1.650127
H      1.335957   -1.259866    2.248508
H     -1.073901   -1.019116    1.902313
H     -2.601696    1.074947   -0.908933
H      4.319983    1.730158   -1.680990
H     -2.963388   -0.724626    1.511113
H      1.884524    2.000056   -2.035651
H     10.264517   -0.074721   -0.227439
H     10.608591    1.651661   -0.036566
H      7.460806    1.949996   -2.501920
H      8.981413    2.931499   -2.151494
H     11.423183   -0.160727   -2.151918
H     12.122298    1.419660   -1.689497
H      9.124013    0.150983   -3.364726
H      9.108381    1.662236   -4.382890
H      3.546272   -0.797109    1.654801
H     -6.976360   -1.964237    2.789790
H     -5.262228   -2.393629    2.649869
H      6.162505    0.580486   -1.717126
H      6.226886    2.070228   -0.744182
H     -3.743875    2.092648    1.476391
H     -7.249870   -1.388554    0.517328
H     -4.406447   -2.027591   -0.130147
H     -4.772809    0.814408   -0.434024
H     -6.514630    0.174071    3.296280
H     -6.242916    1.300776    1.288678
