70

C     -3.880497    2.643698   -1.826730
C      9.010386    1.231100   -1.507049
C      8.695331   -1.185070   -1.572735
C      9.926672   -0.213738    0.303841
C     -6.018251   -3.152028    0.623420
C     -4.766788   -3.215004    1.435736
C     -6.809267   -1.923016    0.929935
C     -3.846646   -2.059709    1.101544
C      1.528831    0.095945   -1.317212
C      0.239004    0.156214   -0.810941
C     -1.355498    0.382926    1.033683
C      4.718096    0.430520    1.303790
C     -2.455652    0.294003    0.333140
C      3.416863    0.486265    1.775450
C      3.863545    0.156616   -0.873131
C     -6.644472    0.513094    1.298245
C     -4.605160    1.476836   -1.171947
C     -5.919628   -0.760310    1.391429
C      2.580144    0.209837   -0.423399
C      0.001744    0.322947    0.529891
C      4.968598    0.265789   -0.018411
C     -4.644318   -0.858540    0.626027
C     -3.817584    0.366380    0.937261
C     -5.948027    1.691154    0.783589
C      2.344725    0.378722    0.934649
C     -4.549236    1.537182    0.332219
C     -6.617208    2.235706   -0.453263
C      7.491184    0.094248    0.091305
C      8.802134    0.020546   -0.652909
N      1.073810    0.426124    1.337570
N      6.264470    0.186080   -0.575557
O     -7.558310    3.067495   -0.467745
O      7.523930    0.071232    1.334926
O     -5.981713    1.633099   -1.512795
H     -3.972667    3.561657   -1.203906
H     -2.849441    2.395963   -2.093827
H     -4.407347    2.861001   -2.795409
H     10.073537    1.290983   -1.792173
H      8.718386    2.169309   -1.001103
H      8.428474    1.140896   -2.454050
H      8.055869   -0.878867   -2.434269
H      8.132106   -1.954602   -1.016425
H      9.665974   -1.514535   -1.948673
H     10.757617   -0.687099   -0.259071
H     10.250767    0.738351    0.804309
H      9.598767   -0.888513    1.131712
H     -6.653067   -4.031854    0.934734
H     -5.779779   -3.216043   -0.467610
H     -4.217707   -4.151218    1.179928
H     -4.988000   -3.186079    2.503777
H     -7.608367   -2.095863    1.674949
H     -7.269258   -1.567977   -0.036018
H     -3.238539   -1.846435    1.992690
H     -3.159336   -2.364648    0.278033
H      1.705175   -0.035651   -2.374747
H     -0.580706    0.065026   -1.527437
H     -1.481688    0.517531    2.120631
H      5.530564    0.528933    2.023983
H     -2.386648    0.163074   -0.724019
H      3.269005    0.617067    2.826894
H      4.043960    0.021677   -1.954486
H     -7.057803    0.754964    2.323636
H     -7.581621    0.352867    0.685360
H     -4.184670    0.563293   -1.601999
H     -5.673247   -1.016815    2.464358
H     -4.809250   -1.006346   -0.459684
H     -3.800805    0.497423    2.025183
H     -5.972365    2.552794    1.515123
H     -3.925114    2.445563    0.582273
H      6.336007    0.197831   -1.638365
