47

C      0.629892   -0.112241   -2.305076
C      5.894189   -0.393201    1.166329
C      4.719781   -1.334750   -0.917963
C      1.964629    0.032038   -0.078306
C     -4.749178   -1.440393    1.350850
C     -3.505589   -1.858154    1.457035
C      2.895443    1.041664   -0.704407
C     -0.422835    0.471197   -0.220939
C     -4.178957    0.160251   -0.487655
C     -2.760476    1.262717    1.165619
C      0.676772    0.141199   -0.858804
C     -5.179594   -0.295236    0.516493
C     -2.474868   -1.161197    0.713331
C      4.234570    1.076306   -0.056924
C     -1.748361    0.615013   -0.850922
C     -2.367050    2.418239    0.321412
C      5.063379   -0.152546   -0.072514
C     -2.792150    0.148815    0.140813
O     -6.349975   -0.634333   -0.202889
O     -1.343058   -1.707315    0.586104
O     -2.341764    3.604858    0.725190
O     -2.038359    1.993908   -0.956140
O      5.374998    1.003181   -0.820925
H     -0.158437   -0.868050   -2.582710
H      0.560507    0.799410   -2.920270
H      1.601145   -0.604427   -2.600108
H      5.234181   -0.382080    2.069626
H      6.725261    0.330632    1.276915
H      6.324106   -1.414082    1.091564
H      5.691117   -1.642595   -1.422672
H      4.026714   -1.106455   -1.733637
H      4.380447   -2.170329   -0.258669
H      1.780354    0.379888    0.964738
H      2.335218   -0.986924   -0.082276
H     -5.570505   -1.937524    1.896844
H     -3.269153   -2.703129    2.087562
H      2.359757    2.030436   -0.639173
H      2.989778    0.752551   -1.779429
H     -0.363067    0.655968    0.860729
H     -4.196565   -0.474417   -1.413737
H     -4.370956    1.196508   -0.794693
H     -3.728831    1.418939    1.658865
H     -2.023192    1.064482    1.970238
H     -5.510494    0.567755    1.163358
H      4.287383    1.736350    0.854184
H     -1.841460    0.083083   -1.813066
H     -6.464747   -1.606009   -0.173566
