51

C      7.282147   -1.219041    0.003016
C      6.433464    1.032362    0.846150
C      1.650691    2.194640    0.681131
C     -7.727584   -1.139697    1.207387
C      3.732010   -0.099922    0.921689
C      4.913906   -0.880495    0.487469
C      2.691478    0.000228   -0.172621
C     -3.444611   -2.271183   -0.529032
C     -2.249045   -2.024999   -1.095324
C      0.331247    0.173834    0.262910
C     -3.021964   -0.408645    0.943759
C     -2.853880    1.459315   -0.616370
C      6.123797   -0.371193    0.454484
C      1.514451    0.775293    0.261048
C     -6.474765   -0.845410    0.463796
C     -4.092996   -1.060958    0.067518
C     -1.712992   -0.667261   -1.080548
C     -0.886952    0.888685    0.680205
C     -1.802544    2.506781   -0.668291
C     -2.085451    0.300548   -0.014778
O     -6.540694   -0.081122   -0.520684
O     -0.915533   -0.253992   -1.963135
O     -1.804842    3.443675   -1.517913
O     -5.241936   -1.366869    0.796754
O     -0.896619    2.242509    0.342681
H      7.217082   -1.276884   -1.122204
H      8.250753   -0.767837    0.300554
H      7.122531   -2.222282    0.450106
H      5.663937    1.665487    0.313403
H      6.335051    1.212813    1.923467
H      7.449017    1.308624    0.518842
H      1.073731    2.414625    1.609248
H      1.298336    2.848850   -0.169261
H      2.721152    2.380424    0.894712
H     -8.088761   -0.144959    1.602250
H     -8.536509   -1.506203    0.547444
H     -7.561678   -1.773726    2.079809
H      3.240392   -0.640265    1.769722
H      4.044805    0.899139    1.279910
H      4.771606   -1.909586    0.186502
H      2.422029   -1.011546   -0.518387
H      3.141968    0.545783   -1.033418
H     -3.876611   -3.245364   -0.515095
H     -1.685439   -2.802014   -1.554692
H      0.283773   -0.857582   -0.050484
H     -2.438213   -1.191573    1.455566
H     -3.471228    0.270804    1.686912
H     -3.286027    1.236869   -1.593171
H     -3.665687    1.816053    0.049479
H     -4.295135   -0.367379   -0.785291
H     -1.051657    0.790648    1.788836
