47

C     -0.807061    1.232887   -1.680163
C     -5.160278   -0.483910   -1.027967
C     -5.984032   -1.233704    1.254096
C     -2.046909   -0.142236    0.092449
C      5.247907   -1.626774   -0.989131
C      4.084605   -2.266200   -0.842545
C     -2.857288    1.043101    0.561584
C      0.421780   -0.031867   -0.027746
C      4.087611    0.489156   -0.834740
C      2.888792    0.329116    1.300935
C     -0.744137    0.329055   -0.506891
C      5.393239   -0.220511   -0.549279
C      2.923796   -1.618579   -0.252413
C     -4.147537    0.542106    1.153501
C      1.649764    0.480399   -0.680924
C      2.296665    1.676705    1.099614
C     -5.148362   -0.221190    0.458192
C      2.909208   -0.170804   -0.149880
O      6.375259    0.439723   -1.296129
O      1.972882   -2.316577    0.149810
O      2.220027    2.551428    1.984910
O      1.844549    1.822458   -0.203489
O     -5.357069    1.120570    0.801563
H     -1.861542    1.439269   -1.981399
H     -0.263020    0.769212   -2.548045
H     -0.296001    2.198501   -1.458196
H     -4.789565   -1.493612   -1.295790
H     -6.218966   -0.434768   -1.379394
H     -4.589720    0.266693   -1.599759
H     -7.052038   -0.945248    1.264664
H     -5.608663   -1.239369    2.300663
H     -5.840888   -2.207969    0.749678
H     -1.777709   -0.739022    0.993785
H     -2.638813   -0.705250   -0.625963
H      6.085951   -2.137714   -1.430260
H      4.060547   -3.293479   -1.189581
H     -3.044697    1.721262   -0.304310
H     -2.304312    1.655451    1.303448
H      0.433406   -0.699313    0.838619
H      4.132387    1.548195   -0.517254
H      3.938927    0.475440   -1.920442
H      3.913517    0.369932    1.720728
H      2.244814   -0.323724    1.919934
H      5.665034   -0.150542    0.542669
H     -4.049892    0.334351    2.260305
H      1.606057    0.448383   -1.783010
H      6.191777    1.418971   -1.354629
