95

C     -8.158420   -0.072931   -1.804141
C     -7.727016    0.902889   -0.712238
C      8.109453   -1.640877    2.565375
C      7.671748    3.724372   -1.869814
C      7.866049   -2.173239    1.319702
C      7.506705   -0.449779    2.887920
C      7.851668    2.461693   -2.388454
C      6.792069    3.878475   -0.830831
C      0.935428   -1.602239   -0.558150
C      7.027890   -1.508004    0.422117
C      6.670955    0.208147    1.984974
C      7.143230    1.373222   -1.853580
C      6.089990    2.794610   -0.301182
C     -4.075017   -1.915029    2.731029
C     -4.753690   -2.618301    0.603304
C     -4.006870   -3.248759    3.167693
C     -4.691547   -3.935456    1.017856
C      5.118341   -0.619851   -1.306026
C      4.255669    0.877364    0.379167
C     -1.526372    3.248200   -1.245343
C      0.016694   -0.472579   -1.083879
C      2.194638   -1.516112   -1.438030
C      3.947206   -0.086274   -2.063090
C      3.110723   -0.109030    0.180195
C     -2.904761    3.162901   -1.800008
C     -3.047587    0.883584   -2.359913
C     -4.444215   -1.582655    1.459123
C      6.423580   -0.316863    0.740562
C      6.272732    1.525684   -0.824436
C     -4.319659   -4.268801    2.297689
C     -6.317254    0.592847   -0.373670
C     -3.948798    0.579313   -1.208717
C     -4.498022   -0.137084    1.039880
C     -5.923934    0.142023    0.788829
C     -3.544360    0.126803   -0.051144
C     -6.897163   -0.130753    1.871221
C     -2.149029   -0.288129    0.208187
C      5.531714    0.374896   -0.251863
N     -1.546910    4.358859   -0.270690
N     -6.428857   -0.564559    2.995201
N     -1.156905   -0.358248   -0.436226
N     -5.347216    0.819539   -1.389794
N      2.765712   -0.195066   -1.232574
N     -4.255221   -5.642683    2.713177
O     -8.241268    0.027063    1.802798
O     -1.970875   -0.706746    1.608746
O     -4.560840   -6.648280    1.829868
O     -3.928057   -5.963280    3.863380
O     -3.181102    2.229954   -2.724672
H     -7.263970   -0.255597   -2.435686
H     -8.993083    0.371407   -2.392498
H     -8.463605   -1.045415   -1.380866
H     -8.426418    1.088647    0.059594
H     -7.662293    1.907409   -1.281133
H      8.768529   -2.171562    3.261776
H      8.211628    4.567827   -2.273385
H      8.347909   -3.116024    1.072529
H      7.686581   -0.024087    3.854719
H      8.535810    2.348358   -3.193909
H      6.655056    4.887963   -0.424088
H      0.496020   -2.586493   -0.720662
H      1.156290   -1.443356    0.504436
H      6.885523   -1.980120   -0.522646
H      6.202187    1.148015    2.243113
H      7.315662    0.408353   -2.286707
H      5.421461    2.956023    0.510969
H     -3.807191   -1.182725    3.497182
H     -5.047177   -2.367314   -0.398475
H     -3.714314   -3.503147    4.176888
H     -4.932902   -4.756490    0.344612
H      5.932799   -0.978210   -1.953678
H      4.753690   -1.531754   -0.746124
H      3.886708    1.830666   -0.043025
H      4.376105    0.980687    1.461602
H     -0.744337    3.435753   -2.010850
H     -1.323936    2.356163   -0.625477
H     -0.078678   -0.668605   -2.205027
H      0.625756    0.488915   -1.064114
H      2.912049   -2.310368   -1.172454
H      1.829846   -1.596418   -2.487337
H      3.783889   -0.606561   -3.041263
H      4.112189    1.009748   -2.245577
H      2.232854    0.313385    0.704639
H      3.329607   -1.086237    0.625541
H     -3.098877    4.171392   -2.286298
H     -3.601055    3.180574   -0.924500
H     -3.362942    0.290496   -3.260743
H     -2.000681    0.701053   -2.218654
H     -4.201234    0.456218    1.942356
H     -1.821881    4.020511    0.676903
H     -2.132843    5.138956   -0.588647
H     -7.008629   -0.789031    3.822300
H     -5.641150    1.181492   -2.330031
H     -8.879818    0.114213    2.562348
H     -1.002361   -0.875540    1.912272
