50

C     -6.698265   -2.278846    1.271099
C     -5.336192   -2.134972    1.391657
C     -7.373499   -1.448670    0.406122
C     -2.749240    3.827719   -1.296959
C      6.644270   -1.381972   -1.786735
C     -4.695125   -1.150342    0.629154
C     -6.759394   -0.484972   -0.341406
C     -3.735473    2.904697   -1.369258
C      5.660030   -1.774104   -0.900734
C     -1.563714    3.499810   -0.669418
C      2.247180    1.235214    1.825021
C      7.543619   -0.397333   -1.410490
C      3.397861    0.566045    2.168586
C     -2.458406    1.313606   -0.228723
C      6.481866   -0.231541    0.662620
C      2.431853   -1.743293   -0.353067
C     -5.353853   -0.324711   -0.228017
C     -3.649227    1.592232   -0.839103
C      5.544280   -1.210213    0.359486
C     -1.428671    2.242735   -0.139706
C      1.650231    0.503104    0.811608
C      2.500205   -0.600823    0.593856
C     -4.795442    0.732443   -1.020537
C      0.405534    0.847473    0.146875
C      4.488138   -1.609135    1.319647
N      7.441553    0.152241   -0.199807
N     -0.219211    1.910026    0.508379
N      3.515881   -0.548910    1.394647
O     -5.449502    0.984729   -2.131959
O     -0.099629    0.047226   -0.858420
S      3.510992   -2.934232    0.488309
H     -7.236349   -3.028931    1.842164
H     -4.769848   -2.777774    2.067935
H     -8.455192   -1.600048    0.342362
H     -2.806056    4.828758   -1.700040
H      6.687096   -1.858585   -2.766309
H     -3.635322   -1.101560    0.762056
H     -7.324679    0.161650   -1.017717
H     -4.653093    3.187135   -1.866401
H      4.979397   -2.545663   -1.228632
H     -0.763467    4.218944   -0.600186
H      1.824627    2.147731    2.212260
H      8.299229   -0.111641   -2.120569
H      4.053897    0.938311    2.945687
H     -2.272641    0.356946    0.192785
H      6.453234    0.249422    1.625180
H      2.846759   -1.491224   -1.347198
H      1.426109   -2.205023   -0.409100
H      4.861958   -1.948763    2.281437
H     -0.614308    0.475079   -1.619403
