24

C     -0.980211   -0.860338   -1.253643
C      2.383367    0.298674   -0.448686
C      0.949540   -0.102304   -0.255653
C     -1.791867   -0.448819   -0.087504
C      0.246720    0.796860    0.719651
C     -1.198541    0.522621    0.845632
N      0.187257   -0.030800   -1.489627
O      3.056299    0.208348    0.768562
O     -2.136950   -1.625018    0.621921
O      0.942837    0.697444    1.939316
O     -1.896422    1.749156    0.731646
H     -1.586384   -0.914212   -2.200721
H     -0.580036   -1.908756   -1.133576
H      2.436665    1.357593   -0.774769
H      2.861971   -0.398073   -1.164130
H      0.914944   -1.140025    0.173995
H     -2.783817   -0.075740   -0.481996
H      0.438547    1.851757    0.371544
H     -1.390115    0.207737    1.915126
H      0.727002   -0.437889   -2.265507
H      3.050457   -0.742726    1.088670
H     -2.381480   -2.346759   -0.008229
H      0.522265    1.305153    2.581694
H     -1.992047    2.036119   -0.193717
