39

C     -0.938219    1.676220    2.230788
C     -0.752680   -0.425789   -2.249409
C     -0.382462   -1.893004   -0.344800
C      3.034339   -0.044206    0.679610
C      1.804680    0.261480    0.019954
C     -3.117088   -1.009876    0.663136
C     -2.388859   -0.184436    1.665506
C      4.191434   -0.045277    0.097193
C     -2.609520   -0.818737   -0.739559
C      0.625351    0.251926    0.658270
C     -1.638549    0.981286    1.068250
C      4.360696    0.265129   -1.291860
C     -1.113494   -0.624895   -0.790662
C     -0.654815    0.560546    0.011979
O      3.505962    0.569506   -2.136093
O      5.682029    0.230624   -1.817357
O     -0.544534    1.643464   -0.885685
H     -0.677722    0.898673    3.006317
H     -1.622144    2.381982    2.746907
H     -0.009721    2.178780    1.910742
H     -1.421664   -1.104930   -2.829247
H     -0.980878    0.607701   -2.601385
H      0.282096   -0.740666   -2.474330
H      0.502796   -2.087994   -1.003507
H      0.007344   -1.799097    0.682516
H     -1.035415   -2.792091   -0.466049
H      2.954382   -0.291116    1.756706
H      1.719782    0.518598   -1.016359
H     -4.209149   -0.779661    0.643679
H     -3.058655   -2.092934    0.971094
H     -1.719507   -0.751948    2.331486
H     -3.166414    0.271473    2.344944
H      5.103844   -0.292697    0.673364
H     -3.084435    0.036238   -1.238890
H     -2.838873   -1.740681   -1.304927
H      0.659777   -0.001973    1.706709
H     -2.378151    1.729440    0.672619
H      5.866735    0.380649   -2.805597
H      0.041700    2.346397   -0.546054
