39

C      0.498635    2.214652   -0.372901
C     -0.976899   -0.033159   -2.076540
C     -1.169540   -1.996673   -0.712899
C      2.814067   -1.944208    1.289785
C      1.661964   -1.261241    0.999119
C     -3.015977    1.134680    0.307852
C     -1.897653    2.103301    0.348634
C      4.027289   -1.653929    0.911325
C     -2.796888   -0.108560   -0.464724
C      0.633924   -0.652531    0.740224
C     -0.522634    1.567738    0.496535
C      4.378915   -0.560223    0.114044
C     -1.363703   -0.476815   -0.720981
C     -0.564797    0.057855    0.437941
O      5.679694   -0.449722   -0.144477
O      3.673695    0.411658   -0.454116
O     -1.447425   -0.220388    1.557708
H      0.109297    3.164354   -0.853319
H      0.797215    1.605990   -1.247294
H      1.425194    2.530762    0.153280
H     -1.197261    1.012202   -2.333545
H     -1.636672   -0.629640   -2.784788
H      0.051271   -0.367377   -2.377964
H     -1.256587   -2.450669    0.266134
H     -1.987595   -2.400110   -1.355938
H     -0.225518   -2.184383   -1.250145
H      2.805060   -2.878173    1.927216
H      0.869141   -2.205795    1.647105
H     -3.411694    0.969874    1.353447
H     -3.886903    1.664128   -0.188279
H     -1.992030    2.781789   -0.559782
H     -2.136183    2.822209    1.192088
H      4.858319   -2.356464    1.275378
H     -3.217308   -0.957820    0.152827
H     -3.390418   -0.164360   -1.423504
H      1.429795    0.251493    0.049306
H     -0.178651    1.788624    1.559699
H      3.895500    1.007316   -1.244024
H     -1.336639   -1.136381    1.837547
