67

C      4.216609    1.662546    0.878792
C     -2.663147    0.657123   -1.202122
C      1.471351    1.147523   -1.306636
C      6.472681    0.990146   -0.728264
C      5.708981   -0.795160    0.680796
C     -7.099959   -0.345533   -0.823415
C     -2.589186   -2.215319    0.098714
C     -1.259717   -2.249307   -0.570092
C      3.063695   -1.207541   -1.376210
C      1.624987   -1.597982   -1.610149
C     -4.654056    1.292044    0.885815
C     -0.337140    1.173213    0.847825
C     -3.180374    1.170062    1.137082
C      1.119337    0.756926    1.110716
C     -4.516484   -1.145725    1.118180
C      4.124591    0.739348   -0.298953
C     -3.207591   -1.130315    0.461329
C     -5.390877    0.001683    0.687185
C     -0.538850   -0.910711   -0.530001
C      3.072006   -0.292731   -0.126445
C      0.935542   -1.138062   -0.370643
C     -1.092598   -0.094654    0.580630
C     -2.563036    0.186269    0.209669
C      1.647553    0.206650   -0.157122
N      5.399815    0.055106   -0.446118
O     -5.721721   -0.247340   -0.654883
H      5.278898    2.041052    0.958102
H      3.972080    1.203962    1.844368
H      3.606348    2.585403    0.748734
H     -1.821739    1.393708   -1.368330
H     -3.572109    1.254981   -1.396820
H     -2.662649   -0.152565   -1.955131
H      2.222810    0.968170   -2.108840
H      0.500508    1.145084   -1.794728
H      1.629274    2.185691   -0.905509
H      7.310923    0.918990   -0.009601
H      6.905788    0.668286   -1.721070
H      6.118796    2.020779   -0.898294
H      5.448807   -1.831676    0.413437
H      6.789640   -0.768194    0.939894
H      5.068211   -0.481575    1.528348
H     -7.562849   -1.145836   -0.242489
H     -7.525402    0.658779   -0.642685
H     -7.259158   -0.559308   -1.911054
H     -3.053969   -3.168800    0.286307
H     -1.454506   -2.587345   -1.617148
H     -0.658210   -3.048785   -0.087178
H      3.714297   -2.090468   -1.217407
H      3.464957   -0.641360   -2.236434
H      1.191234   -1.003326   -2.465338
H      1.497329   -2.682468   -1.811028
H     -5.129782    1.908935    1.713528
H     -4.871752    1.912537   -0.024048
H     -0.418521    1.935168    0.078362
H     -0.700355    1.593995    1.807587
H     -2.994517    0.945508    2.207904
H     -2.750571    2.194358    0.937148
H      1.021268   -0.058480    1.887064
H      1.670884    1.558853    1.592217
H     -4.334206   -0.978857    2.222711
H     -5.038350   -2.124334    1.041282
H      3.987013    1.379400   -1.193601
H     -6.317179    0.062930    1.308123
H     -0.696581   -0.468209   -1.537159
H      3.242198   -0.930998    0.745637
H      1.210317   -1.775832    0.474559
H     -1.071590   -0.706411    1.507500
