47

C     -1.430558   -2.290037    1.179732
C     -2.776904    1.783097    2.009771
C      0.007158   -1.939163    1.051422
C     -1.652542    1.226994    1.418080
C     -4.036348    1.595547    1.517760
C     -2.203131   -2.366528   -0.092795
C      4.622501    0.485427    0.967400
C      5.179542   -0.028215   -0.285084
C     -0.408810    0.521081   -1.791665
C      0.698306    1.416057   -1.492287
C      3.005904    0.985351   -1.098389
C      1.393682    0.026545    0.390722
C      4.166146    1.172956   -0.223198
C      0.296421   -0.915797   -0.021205
C     -1.786405    0.451920    0.291327
C     -4.176234    0.825067    0.395633
C     -1.830194   -1.362158   -1.126072
C     -3.059894    0.260651   -0.208313
C     -0.896504   -0.273129   -0.591024
N      1.676319    1.083881   -0.506067
O     -5.469750    0.634246   -0.106471
O     -2.993200   -0.552512   -1.357105
H     -1.914198   -1.645546    1.960435
H     -1.482868   -3.322095    1.647417
H     -2.669839    2.411429    2.905208
H      0.366307   -1.528710    2.025074
H      0.588289   -2.893981    0.896914
H     -0.707223    1.442620    1.893917
H     -4.921309    2.022157    1.970792
H     -3.295343   -2.324053    0.197099
H     -2.100467   -3.380651   -0.561951
H      4.010847   -0.096450    1.648261
H      5.416856    1.049726    1.593630
H      6.156178    0.196445   -0.702216
H      4.754961   -0.999045   -0.627203
H     -1.303047    1.141881   -2.095959
H     -0.237487   -0.198352   -2.607722
H      1.250900    1.655436   -2.449997
H      0.306970    2.449072   -1.194787
H      3.015084   -0.041700   -1.583020
H      3.030991    1.740176   -1.935997
H      1.341124    0.326738    1.460142
H      2.324227   -0.642315    0.359937
H      4.736460    2.177117   -0.412545
H      0.737396   -1.530092   -0.876608
H     -1.454471   -1.782642   -2.082035
H     -6.275845    1.031553    0.310853
