58

C     -4.372599   -0.242617   -1.522363
C     -3.464533    0.923632   -1.639331
C     -3.634721   -3.798299    0.598639
C     -3.016780   -2.668201    1.080889
C      6.023878   -1.047757   -0.200968
C      6.140339    1.300100   -0.040552
C     -0.345979   -0.739932   -0.234506
C     -0.212585    0.460734    1.948648
C      0.610050    0.410795   -0.547112
C      1.283027    0.202244    1.812894
C      7.247062   -1.090088   -0.850103
C      7.376583    1.261345   -0.696220
C      4.181037    0.145843    0.883134
C     -3.634309    2.927453   -0.413313
C     -4.594561   -2.504826   -1.113766
C     -3.109085    3.147942    1.857253
C      5.461277    0.135308    0.207523
C     -0.944758   -0.610606    1.124603
C     -3.982399   -1.331305   -0.653088
C     -3.283306    1.585815   -0.327711
C     -3.551047    3.740533    0.694804
C     -4.435481   -3.718712   -0.514167
C     -3.188152   -1.424524    0.455105
C      3.014914    0.265236   -0.031262
C     -2.433008   -0.360362    1.142080
C     -2.843050    1.007560    0.840663
Br    -4.021260    5.592405    0.630804
Cl    -5.235217   -5.141055   -1.151111
N     -2.776004    1.850586    1.914595
N      1.676255    0.290419    0.425626
N      7.881558    0.056424   -1.076439
O      3.295041    0.343720   -1.255690
O      9.089851    0.041416   -1.715237
H     -4.573168   -0.638397   -2.559793
H     -5.361922    0.150657   -1.141607
H     -3.956787    1.649360   -2.348056
H     -2.501715    0.685208   -2.135707
H     -3.502296   -4.750081    1.079150
H     -2.391950   -2.700607    1.939796
H      5.515393   -1.987283   -0.021416
H      5.747870    2.282530    0.259431
H     -1.032906   -0.833550   -1.068159
H      0.309990   -1.661892   -0.295152
H     -0.474904    1.478527    1.649384
H     -0.469094    0.273878    3.009680
H      0.103499    1.381894   -0.414059
H      0.952661    0.339069   -1.586941
H      1.773763    1.072225    2.337505
H      1.601554   -0.700845    2.323777
H      7.661868   -2.041829   -1.158890
H      7.928338    2.145040   -0.903693
H      4.074890    1.000684    1.613450
H      4.086599   -0.767662    1.532921
H     -3.978651    3.361790   -1.344911
H     -5.241348   -2.468298   -2.003814
H     -3.041153    3.785944    2.737049
H     -0.720020   -1.562533    1.675797
H     -2.712548   -0.505051    2.246088
