55

C     -5.762820   -1.680806    1.835426
C     -3.827209    0.608030   -2.381219
C     -2.081301    2.297935   -1.943413
C      5.130408   -0.137382   -0.309552
C      3.674520    0.166362   -0.025315
C      5.925862    1.129788   -0.077365
C      2.903951   -1.125911   -0.267798
C     -5.250800    0.422183    0.724379
C     -4.277230    1.461103    0.316990
C      7.375469    0.797709   -0.368127
C     -3.392048   -0.718495    1.728324
C      0.922139   -1.176170    1.225841
C      0.653445   -0.564498   -1.066294
C     -4.846770   -0.623693    1.404906
C      1.457345   -0.953628   -0.020381
C     -2.692846   -0.404287    0.462127
C     -2.940073    0.979748   -0.064387
C     -0.448100   -1.011066    1.451879
C     -0.686419   -0.402171   -0.848863
C     -1.243983   -0.624866    0.410903
C     -2.641386    0.949165   -1.543370
N      8.371078   -2.491930   -0.325161
N      7.852667   -0.253498    0.503405
N      8.179344   -1.358540    0.070128
O     -1.000635   -1.232074    2.707844
O     -1.606015   -0.009078   -1.831065
H     -5.559833   -2.581380    1.195226
H     -5.449508   -1.985494    2.875892
H     -6.821250   -1.392053    1.846050
H     -3.461934    0.382956   -3.409892
H     -4.308876   -0.320197   -2.015213
H     -4.551076    1.442608   -2.486185
H     -2.860035    3.086756   -1.948126
H     -1.567891    2.240600   -2.936080
H     -1.292097    2.543651   -1.197012
H      5.472872   -0.960754    0.329601
H      5.185379   -0.450251   -1.380050
H      3.278334    0.922663   -0.719863
H      3.517878    0.471169    1.032403
H      5.807540    1.402746    0.987910
H      5.632834    1.921955   -0.778697
H      3.304144   -1.965955    0.335643
H      3.099719   -1.396054   -1.332593
H     -6.321346    0.493093    0.474450
H     -4.725033    2.190351   -0.400138
H     -4.136619    2.091424    1.252816
H      7.473352    0.447131   -1.414364
H      7.977185    1.743504   -0.237776
H     -3.126901   -1.752179    2.049062
H     -3.210927    0.021111    2.539270
H      1.540620   -1.488367    2.082660
H      1.052375   -0.378314   -2.076660
H     -3.127659   -1.096662   -0.322442
H     -2.119903    1.626359    0.382026
H     -0.449936   -1.517626    3.502238
