65

C     -2.325335   -2.531554    2.166240
C     -3.342717    1.256990   -2.153933
C     -2.769722    2.409097   -1.493957
C      6.558287   -1.237372   -0.130691
C      6.459825    1.118164    0.097520
C      0.294931    0.256585    1.321467
C     -0.156879    0.410795   -1.035671
C      1.612313   -0.468357    1.128085
C      1.211712   -0.216720   -1.367848
C      7.861852   -1.159770   -0.574307
C      7.766029    1.138825   -0.351713
C      4.418040   -0.232462    0.691231
C     -2.649721    3.696642    0.415792
C     -4.722096   -0.581165   -2.154812
C     -4.228420   -3.725855    0.977737
C     -2.182090    2.989467    2.597168
C     -3.333417   -2.631625    1.120594
C      5.830832   -0.103795    0.213911
C     -0.638862   -0.232494    0.205121
C     -3.675411    0.027647   -1.444657
C     -2.542013    2.405985   -0.062120
C     -2.476243    4.020222    1.734158
C     -5.208871   -1.759283   -1.747043
C      3.474794   -0.170488   -0.446579
C     -3.634738   -1.779376    0.091412
C     -3.108404   -0.537196   -0.319568
C     -2.062340   -0.100679    0.589204
C     -2.250177    1.404526    0.813535
C     -4.686860   -2.353206   -0.654104
Br    -2.613812    5.777629    2.438680
Cl    -6.534679   -2.573574   -2.609798
N     -5.011820   -3.538968   -0.070219
N     -2.084099    1.759853    2.115196
N      2.084157   -0.285488   -0.229624
N      8.456163    0.037272   -0.680784
O      3.920402   -0.016821   -1.590973
O      9.770411    0.134203   -1.126478
H     -1.279354   -2.435689    1.886101
H     -2.636487   -2.023777    3.111932
H     -2.256827   -3.607791    2.607813
H     -2.718398    0.924290   -3.054643
H     -4.287036    1.616061   -2.704342
H     -3.333912    3.372120   -1.753370
H     -1.753710    2.641619   -1.967448
H      6.064615   -2.198923   -0.039543
H      5.925657    2.037498    0.357718
H      0.536080    1.336914    1.188467
H     -0.118431    0.040080    2.313849
H      0.062877    1.490892   -0.959886
H     -0.802708    0.126909   -1.891347
H      1.462959   -1.537164    1.378654
H      2.355030   -0.061285    1.813919
H      1.010322   -1.235356   -1.751962
H      1.687082    0.388211   -2.166277
H      8.412327   -2.070348   -0.839414
H      8.298407    2.085635   -0.457422
H      4.239408    0.562079    1.448661
H      4.318839   -1.201734    1.195846
H     -2.884614    4.530081   -0.264128
H     -5.119399   -0.086498   -3.022747
H     -4.245851   -4.568411    1.640192
H     -2.033455    3.191884    3.661235
H     -0.403626   -1.313790    0.101997
H     -2.219678   -0.424135    1.639311
H     -5.761138   -4.187025   -0.405852
