50

C      4.844868    1.782007   -0.496452
C      5.096790   -0.552393   -1.133919
C      5.811793    0.262568    1.135846
C     -3.507441   -2.161869    1.016912
C     -3.668813    2.180475   -0.430375
C     -3.120003    0.282910   -2.868345
C      0.850889   -0.429959   -0.639773
C     -0.267591   -0.145346   -1.430391
C     -3.486783    0.189457    1.881758
C     -4.703924    0.923920    1.319560
C     -0.567979   -0.944484    1.158441
C      0.728470   -0.833567    0.665060
C     -1.682665   -0.673518    0.410763
C     -1.529070   -0.272007   -0.890067
C     -3.831738   -0.186948   -0.469518
C      3.117113   -1.037614    1.087464
C      4.778243    0.343880    0.041446
C     -3.139532   -0.728594    0.742761
N      3.445204    0.057414    0.528113
N     -4.471422    1.038682   -0.103990
N     -2.819805   -0.042440   -1.486025
O      4.042666   -2.062055    1.274478
O      1.793392   -1.125189    1.486875
H      4.281903    1.844929   -1.442716
H      4.535064    2.513938    0.258336
H      5.911937    1.958375   -0.740998
H      5.194623    0.021605   -2.100426
H      6.090185   -1.046651   -1.015070
H      4.275461   -1.280147   -1.323746
H      6.270651    1.267017    1.374048
H      5.367168   -0.052415    2.121968
H      6.676525   -0.374022    0.860158
H     -2.651379   -2.649538    1.537129
H     -3.623179   -2.672746    0.030442
H     -4.442174   -2.247912    1.605540
H     -4.129017    2.820829   -1.236959
H     -2.658307    1.915748   -0.774364
H     -3.599359    2.858477    0.456523
H     -4.055402   -0.255459   -3.190828
H     -2.316982   -0.137927   -3.515787
H     -3.243251    1.369369   -3.036873
H      1.817155   -0.325363   -1.091695
H     -0.155218    0.174348   -2.465114
H     -2.678083    0.878523    2.162261
H     -3.858020   -0.422566    2.730696
H     -4.813535    1.925477    1.782595
H     -5.594543    0.287095    1.460341
H     -0.668127   -1.264970    2.194334
H     -4.597635   -0.936794   -0.780358
H      4.950875   -2.034548    0.845816
