48

C     -4.138215   -1.852101   -1.242951
C     -4.723784   -0.455628    0.996938
C     -2.317990   -0.698963    1.025349
C     -3.555309   -0.691833   -1.098858
C      6.226571   -2.191747   -0.610512
C      6.353029   -1.357668    0.476663
C      4.968358   -2.487572   -1.076417
C      5.214906   -0.825583    1.089591
C      3.831290   -1.950402   -0.457110
C      2.768752   -0.555846    1.268265
C     -1.234544    1.676914   -1.245942
C     -3.827404    3.522492    0.365039
C      3.956848   -1.117875    0.628048
C     -2.399215    2.106248   -0.511602
C      2.342728    0.765697    0.650084
C     -0.116484    1.386257   -0.627117
C     -3.357650    1.407576    0.149013
C      1.133047    1.212758    1.386135
C      1.082187    0.944368   -1.366530
C     -3.438793   -0.074832    0.243017
N     -2.712729    3.435155   -0.364218
N     -4.247117    2.270431    0.696146
N      2.176359    0.672425   -0.761793
N      0.038759    1.484518    0.778675
O      1.168021    1.347920    2.789131
O      0.983753    0.833557   -2.741690
H     -4.541978   -2.379385   -0.402137
H     -4.220437   -2.297283   -2.221815
H     -5.584798   -0.478992    0.332507
H     -4.852277    0.149986    1.919405
H     -4.551587   -1.502451    1.387237
H     -2.071798   -0.026367    1.892638
H     -1.435544   -0.952487    0.410783
H     -2.715978   -1.643605    1.486569
H     -3.154099   -0.169629   -1.945486
H      7.080648   -2.627482   -1.118294
H      7.346835   -1.126524    0.840565
H      4.854102   -3.144663   -1.934098
H      5.402129   -0.180009    1.936810
H      2.884342   -2.235034   -0.887848
H      2.946811   -0.352531    2.357649
H      1.883258   -1.237024    1.233400
H     -1.254090    1.584097   -2.322078
H     -4.389420    4.403028    0.696070
H      3.150530    1.489964    0.925860
H     -5.081588    2.008850    1.253523
H      0.335716    1.148151    3.342479
H      1.793850    0.763122   -3.343491
