53

C     -3.443554    3.602357   -0.248934
C     -3.197562    2.641561   -1.285580
C     -3.015303    3.368062    0.945101
C     -0.666460   -2.739791    0.834142
C     -2.470236    1.549704   -0.833514
C     -2.367779    2.236701    1.405149
C      0.229082   -1.589934    1.143417
C     -2.038098   -2.354056    1.272974
C      3.200153   -1.133735   -0.878332
C      2.500804    1.054949   -0.367156
C      4.673210    0.365172    0.175438
C     -3.084465   -1.447933   -0.660439
C      0.946693   -0.237545   -1.620368
C      2.245782   -0.177512   -0.953874
C     -2.080378    1.258025    0.409952
C      4.478202   -0.901764   -0.329683
C      3.720735    1.325634    0.232692
C     -0.282091   -0.315237    0.296051
C     -4.362359   -0.816695   -1.070184
C     -1.593984   -0.081147    0.833274
C      5.507552   -1.900447   -0.536215
C      3.907338    2.522491    1.041606
F      5.311148   -2.551001   -1.795343
F      6.704647   -1.127282   -0.699009
F      5.700637   -2.812453    0.395713
F      2.859780    3.390694    0.870015
F      3.885380    2.081387    2.417684
F      5.123553    3.046488    0.819832
N     -2.596667   -1.143819    0.633973
O     -4.566247   -0.617304   -2.187076
O     -5.275729   -0.487906   -0.130876
O     -0.035011   -0.811186   -0.972907
H     -4.069858    4.459926   -0.469374
H     -3.539489    2.775173   -2.225637
H     -3.110750    4.196254    1.740782
H     -0.347020   -3.603568    1.481537
H     -0.713488   -3.035747   -0.225811
H     -2.017847    0.885651   -1.676041
H     -2.027539    2.131910    2.361498
H      0.053615   -1.300470    2.185861
H      1.266334   -1.772909    1.020194
H     -2.744411   -3.213712    1.012822
H     -2.122096   -2.245329    2.389844
H      3.006214   -2.103335   -1.231955
H      1.793841    1.869265   -0.475699
H      5.714728    0.555545    0.548117
H     -2.348161   -1.328610   -1.487546
H     -3.303110   -2.562915   -0.675472
H      0.859954    0.546569   -2.299151
H      1.133665   -1.199696   -2.401773
H      0.436361    0.424092    0.687438
H     -1.516224   -0.033815    1.936578
H     -6.323491   -0.640759   -0.359741
