110

C     -1.402576    3.552033   -0.246870
C     -2.800134    2.425642    1.261719
C      2.479672    2.399059   -0.697387
C      2.021803    3.385376    1.370678
C     -7.011540   -3.257464    0.029241
C     -6.817072   -1.134028    1.033077
C      6.947609   -2.275356   -1.777609
C      6.680219   -0.201057   -0.647605
C     -1.643626    4.776337    0.349742
C     -3.057659    3.630612    1.874723
C      2.967776    3.620254   -1.177059
C      2.506656    4.610639    0.903728
C     -8.360795   -3.253063    0.229850
C     -8.188548   -1.114695    1.245004
C      8.213842   -1.884656   -2.208223
C      7.932942    0.210720   -1.061287
C     -4.804621   -0.622314   -1.863582
C      4.614842   -1.060410    1.925121
C     -0.368273   -1.926383    1.236485
C      0.331106   -1.426107   -1.561710
C     -3.834944    0.887831   -3.440325
C      3.502924   -0.211931    3.886262
C     -1.866944   -3.733919    1.717202
C      1.917628   -2.891168   -2.586496
C     -1.956545    2.359243    0.173010
C      2.000622    2.267638    0.583659
C     -6.204353   -2.189751    0.429416
C      6.161610   -1.428432   -0.985936
C     -2.485128    4.822431    1.430717
C      2.984747    4.734821   -0.379712
C     -8.954383   -2.186851    0.836334
C      8.698718   -0.645102   -1.848261
C     -4.823955   -0.009269   -3.129239
C      4.534054   -0.911306    3.311237
C     -0.605005   -3.213571    1.725123
C      0.625257   -2.457342   -2.445727
C     -3.804049   -0.313750   -0.975249
C      3.655946   -0.503521    1.125030
C     -1.348894   -1.117161    0.730131
C      1.284772   -0.802306   -0.801951
C     -2.862651    1.169235   -2.537054
C      2.565991    0.329452    3.035745
C     -2.869453   -2.897189    1.196423
C      2.911744   -2.266887   -1.819246
C     -1.637266    1.071881   -0.526949
C      1.483819    0.918787    1.048456
C     -2.778166    0.594967   -1.251862
C      2.586713    0.222021    1.660349
C     -2.625631   -1.636694    0.720866
C      2.602898   -1.253753   -0.953017
C     -0.792133    0.147713    0.291991
C      0.682384    0.238654    0.010639
C     -3.939311   -1.092270    0.287858
C      3.875966   -0.786550   -0.279795
C     -4.776098   -2.319380    0.171280
C      4.826357   -1.912213   -0.586481
O     -2.786802    6.004495    2.096434
O      3.471327    5.955541   -0.852663
O    -10.341397   -2.208961    1.030058
O      9.959229   -0.255152   -2.277100
O     -5.836572   -0.345111   -3.985799
O      5.526169   -1.488305    4.130117
O      0.423272   -4.000305    2.230946
O     -0.338595   -3.092701   -3.216888
O     -1.879924    2.089504   -2.911861
O      1.531948    1.031766    3.652050
O     -4.197575   -3.227230    1.097609
O      4.271368   -2.506189   -1.775366
H     -0.708064    3.599141   -1.087796
H     -3.240113    1.520144    1.620235
H      2.498223    1.576562   -1.377467
H      1.655274    3.352338    2.379761
H     -6.567550   -4.121776   -0.461704
H     -6.251346   -0.283292    1.367145
H      6.529531   -3.238532   -2.039229
H      6.102850    0.477026   -0.032993
H     -1.197651    5.691035   -0.000559
H     -3.726365    3.712499    2.744489
H      3.348769    3.713619   -2.205915
H      2.504389    5.474755    1.573144
H     -8.947977   -4.112755   -0.100709
H     -8.706642   -0.284189    1.731011
H      8.776031   -2.587725   -2.825213
H      8.331114    1.159121   -0.798797
H     -5.580722   -1.322742   -1.612976
H      5.472853   -1.608825    1.560320
H      0.668754   -1.645349    1.310109
H     -0.719919   -1.182324   -1.554675
H     -3.823042    1.376016   -4.409020
H      3.474651   -0.121020    4.952031
H     -2.077806   -4.727210    2.086438
H      2.220675   -3.696407   -3.261068
H     -0.887138    1.417331   -1.338284
H      0.763739    1.205994    1.865189
H     -0.843874    0.728746    1.335363
H      0.650504    1.112235   -0.825971
H     -4.301568   -0.414005    1.063803
H      4.262036    0.126502   -0.786361
H     -4.571540   -2.804868   -0.827631
H      4.897840   -2.686093    0.175395
H     -2.188093    6.264951    2.870711
H      3.468755    6.740042   -0.243906
H    -10.912251   -1.817940    0.276488
H     10.816725   -0.419226   -1.779115
H     -6.694217    0.189832   -3.970521
H      6.361988   -0.966674    4.383151
H      1.396415   -3.695764    2.278797
H     -0.605450   -2.789133   -4.148832
H     -1.868715    2.535216   -3.794413
H      1.437615    1.155896    4.649573
