53

C     -3.021173   -4.092171   -0.452915
C     -1.703091   -3.670203   -0.568580
C     -3.988745   -3.208786   -0.059431
C     -2.241220    1.362616   -2.140701
C     -1.354936   -2.362917   -0.291778
C     -3.599014   -1.911465    0.206379
C     -1.193517    0.301801   -1.879424
C     -3.264415    1.514191   -1.054687
C      3.667468    1.506904    0.403108
C      3.149479   -0.790816    0.337856
C      5.414028   -0.108384    0.536618
C     -4.049471    1.085164    1.108718
C      1.318741    0.946803    0.153974
C      2.706379    0.505416    0.310614
C     -2.300316   -1.456750    0.100568
C      5.011986    1.200288    0.512450
C      4.482285   -1.119785    0.449097
C     -0.833112    0.487766   -0.374304
C     -3.893390    2.422010    1.708260
C     -2.018412   -0.032918    0.389621
C      6.076540    2.253596    0.590210
C      4.990761   -2.502655    0.479667
F      6.312603    2.640004   -0.712151
F      5.605619    3.319250    1.348409
F      7.211774    1.692688    1.072658
F      4.031339   -3.469530    0.473586
F      5.827535   -2.571631    1.608215
F      5.846907   -2.607333   -0.621908
N     -3.132290    0.744648    0.095405
O     -4.887278    2.880071    2.376577
O     -2.777030    3.236599    1.624364
O      0.394757   -0.012745   -0.118662
H     -3.255859   -5.126019   -0.676550
H     -0.939654   -4.371276   -0.871607
H     -4.997667   -3.566931    0.021868
H     -2.674492    1.290821   -3.152917
H     -1.671411    2.340414   -2.167179
H     -0.338546   -2.022236   -0.382320
H     -4.433207   -1.257310    0.507575
H     -0.276151    0.417290   -2.442743
H     -1.651873   -0.673398   -2.071994
H     -4.253138    1.244459   -1.545421
H     -3.449016    2.625413   -0.834133
H      3.407855    2.575234    0.393297
H      2.431853   -1.561410    0.271350
H      6.472091   -0.352076    0.617622
H     -5.125024    0.995595    0.799125
H     -3.930721    0.372363    1.991239
H      1.205259    1.747226   -0.629919
H      1.044144    1.471711    1.126970
H     -0.820910    1.588458   -0.254209
H     -1.803699    0.026977    1.491768
H     -2.730625    4.052974    2.213175
