46

C      2.986672    2.726333   -2.155016
C      2.580910   -2.694074    1.593795
C     -0.548537    0.800844    2.805355
C      2.301727    1.463016   -1.599443
C      1.473956   -1.630807    1.457098
C     -4.482775   -1.559530   -0.959154
C     -4.069592   -0.745230    0.071168
C     -3.615110   -1.794773   -2.001153
C      1.931623    1.727227   -0.199364
C      2.069988   -0.435574    0.785530
C     -2.369457    0.712464    1.180923
C     -0.608236    0.202289   -0.983524
C     -0.951838    0.171796    1.488879
C     -2.819808   -0.172411    0.072856
C     -1.958892   -0.413675   -0.973641
C     -0.108093    0.626212    0.349067
C     -2.340862   -1.236592   -2.042458
N      1.284841    0.689229    0.541404
O     -1.501070   -1.491336   -3.102321
H      2.826453    2.808678   -3.254335
H      2.525459    3.638314   -1.720394
H      4.090772    2.686235   -2.010375
H      2.544819   -3.170191    2.597573
H      3.541031   -2.144391    1.549374
H      2.568778   -3.392957    0.753513
H     -0.673703    0.006796    3.577335
H      0.505362    1.121901    2.811767
H     -1.224926    1.631042    3.086809
H      1.525533    1.228704   -2.313230
H      3.135709    0.697736   -1.594002
H      1.058203   -1.473688    2.447744
H      0.750144   -2.114626    0.729763
H     -5.459266   -2.006363   -0.957647
H     -4.714798   -0.523154    0.922333
H     -3.937970   -2.433890   -2.810550
H      2.850828    2.105712    0.331373
H      1.241399    2.622331   -0.188755
H      2.943081   -0.135739    1.456146
H      2.601895   -0.843336   -0.116457
H     -2.302677    1.752901    0.800795
H     -3.002388    0.630614    2.075232
H      0.121594   -0.485582   -1.493635
H     -0.719537    1.058576   -1.719604
H     -1.074276   -0.915514    1.525607
H     -0.379260    1.791811    0.337578
H     -0.597703   -1.087327   -3.153959
