50

C     -3.813966   -0.523781   -1.646801
C     -4.406672    1.172418    2.768435
C     -3.904781    1.802001    1.675297
C     -4.123184   -0.140650    2.965898
C     -1.171132   -0.749334   -2.822822
C     -3.066571    1.200031    0.715321
C     -3.306375   -0.752648    2.023098
C     -0.707352    0.302429   -1.828959
C     -1.897683   -1.884769   -2.157487
C      2.846779    1.394249    0.847740
C      2.913570   -0.894551    0.297182
C      4.875288    0.456884    0.057107
C      0.832465    0.103931    1.283237
C      2.174417    0.157359    0.749969
C     -2.763780   -0.118226    0.911305
C      4.151242    1.543571    0.516722
C      4.288611   -0.811185   -0.075840
C     -0.647892   -0.267862   -0.460789
C     -1.978038   -0.935780   -0.055293
C      4.823107    2.893093    0.673109
C      5.109851   -1.894416   -0.545400
F      4.397737    3.361652    1.915772
F      6.177425    2.754614    0.697523
F      4.349070    3.697974   -0.323639
F      5.716822   -1.523985   -1.750942
F      6.093132   -2.285101    0.350292
F      4.356476   -3.029138   -0.926848
N     -2.766511   -1.301363   -1.166236
O     -0.243358    0.546831    0.554658
H     -4.768261   -1.020981   -1.297744
H     -3.908918    0.526126   -1.436086
H     -3.843325   -0.588163   -2.776553
H     -5.055935    1.658217    3.509738
H     -4.171120    2.856328    1.501728
H     -4.495132   -0.685481    3.791138
H     -1.854860   -0.208841   -3.551946
H     -0.367013   -1.145984   -3.422156
H     -2.688710    1.774880   -0.115535
H     -3.042305   -1.776328    2.163626
H     -1.362354    1.211399   -1.902837
H      0.288106    0.610047   -2.152317
H     -1.128264   -2.524496   -1.645610
H     -2.492407   -2.505401   -2.834560
H      2.307186    2.285112    1.203540
H      2.504695   -1.889622    0.191306
H      5.889483    0.557131   -0.273197
H      0.633468   -1.019656    1.504543
H      0.771151    0.561737    2.324883
H      0.127394   -1.099011   -0.497611
H     -1.651576   -1.851261    0.474042
