46

C      4.089391   -1.626612    0.237078
C      2.651746    3.003894    0.050832
C     -0.386244   -0.775231   -2.753833
C      2.842658   -2.330736   -0.130598
C      1.797204    1.942086   -0.661019
C     -4.773767    1.026936    0.842325
C     -4.210841    0.392568   -0.252877
C     -4.034997    1.218470    2.007811
C      1.562710   -1.674767    0.255228
C      1.908229    0.689038    0.204055
C     -2.374135   -0.725839   -1.383820
C     -0.811490   -0.347138    1.029880
C     -0.915186   -1.045008   -1.324392
C     -2.899365   -0.059226   -0.195825
C     -2.202225    0.146879    0.965319
C     -0.209013   -0.195726   -0.338607
C     -2.742161    0.775684    2.068175
N      1.217157   -0.423841   -0.267288
O     -1.934909    0.918799    3.184020
H      4.357599   -0.885893   -0.521282
H      4.926229   -2.399372    0.307276
H      4.027652   -1.223977    1.258793
H      2.908750    3.839805   -0.635918
H      3.561093    2.533394    0.478778
H      2.064225    3.402246    0.902094
H     -0.693570   -1.614107   -3.398948
H     -0.926961    0.134485   -3.148951
H      0.694121   -0.660588   -2.758718
H      2.892446   -3.343413    0.413728
H      2.824663   -2.649261   -1.210945
H      2.397457    1.688095   -1.593696
H      0.811438    2.293122   -0.890399
H     -5.790184    1.396601    0.846191
H     -4.810715    0.261865   -1.121931
H     -4.438953    1.713872    2.890136
H      1.586727   -1.663565    1.406801
H      0.775908   -2.469109    0.089669
H      1.453390    1.066643    1.210362
H      2.970723    0.605201    0.455517
H     -2.644272   -0.081768   -2.261394
H     -2.931953   -1.678764   -1.563897
H     -0.936217   -1.447716    1.294154
H     -0.225347    0.157785    1.826685
H     -0.739468   -2.122779   -1.145216
H     -0.382141    0.865305   -0.690966
H     -2.307400    1.371664    4.025612
