48

C      0.986639    0.583922   -0.212554
C     -0.413267    2.097081   -1.379713
C     -5.934803   -1.114190    1.336760
C     -4.894591    0.260748   -0.333260
C     -2.319019   -0.655073    2.246503
C      5.481937   -0.065284   -1.851467
C     -0.237775    1.206099   -0.336197
C     -5.984819   -0.383381    0.177555
C     -3.593106   -0.539091    1.496616
C      1.998897    0.841139   -1.097755
C      4.246593    0.529535   -1.933794
C     -4.726476   -1.191673    2.001452
C      5.739661   -0.974843   -0.829437
C      0.594331    2.358823   -2.268034
C     -1.112192   -0.282630    1.410336
C     -3.669325    0.185767    0.335104
C      3.248248    0.222814   -0.992957
C      4.763331   -1.262990    0.075528
C      3.487728   -0.661258    0.006470
C     -1.381361    0.962121    0.598844
C      1.836644    1.734615   -2.151813
C      3.938517    1.431984   -2.919210
O     -7.209030   -0.313525   -0.482486
O     -4.685776   -1.935010    3.177031
O      7.001264   -1.577867   -0.751024
O      0.433586    3.259183   -3.331636
O     -0.872477   -1.347717    0.549671
O      4.960447   -2.162655    1.118189
O      2.562835   -1.011325    0.962331
O      4.829054    1.731790   -3.791981
O     -2.558137    0.833462   -0.171333
O      2.779665    2.011717   -3.024380
H      1.068378   -0.082809    0.599658
H     -1.374208    2.594294   -1.488020
H     -6.796495   -1.624337    1.742153
H     -4.917232    0.838140   -1.241424
H     -2.362522   -0.101818    3.203508
H     -2.175072   -1.740664    2.529162
H      6.263134    0.162667   -2.572238
H     -0.290239   -0.071197    2.102125
H     -1.523750    1.812356    1.295063
H     -7.816624    0.449222   -0.218524
H     -3.827013   -1.998984    3.668537
H      7.173976   -2.228912   -0.013008
H     -0.455103    3.714395   -3.425925
H     -0.796918   -2.156162    1.111201
H      5.781984   -2.668248    1.313689
H      2.750479   -1.670232    1.702185
