50

C     -1.667238   -4.179468    0.697280
C     -2.881655   -4.789515    0.470302
C     -2.941231    1.912951    0.596747
C     -1.182993    1.764752   -0.952375
C      3.736806    0.624699    0.785446
C      4.033097    0.035307   -1.502261
C     -0.377509   -2.136841    1.122934
C     -3.980262   -2.694183    0.622349
C     -1.648470   -2.839774    0.880347
C     -1.803431    1.243534    0.128634
C      3.232584    0.117353   -0.381706
C     -4.049357   -4.057982    0.429975
C     -3.426150    3.047258    0.005422
C     -1.679131    2.924968   -1.556934
C      5.055112    1.056239    0.838607
C      5.346007    0.448503   -1.504858
C     -2.790358   -2.049645    0.851123
C     -0.363588   -0.806394    0.322278
C     -2.809852    3.578088   -1.080317
C      5.831681    0.963360   -0.292950
C     -1.431001    0.033668    0.889429
C      1.851913   -0.352982   -0.498982
O     -5.279717   -4.659752    0.202157
O     -4.556571    3.648014    0.530396
O     -1.048253    3.460340   -2.660894
O      5.561917    1.576959    2.047816
O      6.152024    0.365839   -2.633297
O     -3.246526    4.717867   -1.722900
O      7.140311    1.375811   -0.293531
O      1.466550   -0.801568   -1.594750
O     -2.618888   -0.709608    1.052928
O      0.959762   -0.318695    0.558264
H     -0.740976   -4.774050    0.727340
H     -2.883503   -5.866382    0.324729
H     -3.488066    1.537681    1.470964
H     -0.320120    1.281426   -1.335557
H      3.116537    0.688617    1.654848
H      3.656536   -0.366544   -2.450816
H     -0.324469   -1.808005    2.185051
H      0.516841   -2.695070    0.852064
H     -4.883451   -2.082711    0.597316
H     -0.498226   -1.126386   -0.712748
H     -1.139143    0.380471    1.909729
H     -5.593989   -4.746150   -0.752311
H     -5.015358    4.464025    0.210485
H     -0.230976    3.073118   -3.084405
H      6.518080    1.876975    2.042871
H      7.105022    0.691981   -2.547339
H     -4.060774    5.208669   -1.398761
H      7.680450    1.763235    0.433864
