36

C     -4.739408   -0.558044   -0.076480
C     -3.862868   -0.029168   -1.001745
C      2.565313    1.317998    0.107801
C      1.925442   -0.873030    0.694473
C     -2.934563   -0.527516    1.532837
C      1.570611    0.376380    0.253706
C     -4.237391   -0.797515    1.194478
C     -2.559007    0.245290   -0.677212
C      3.900990    1.014282    0.399350
C      3.242381   -1.176292    0.983118
C     -2.077924    0.002194    0.585948
C     -1.611654    0.812921   -1.664135
C      4.267591   -0.231718    0.840794
C     -0.273421    0.147646   -1.394826
C      0.192766    0.734891   -0.060720
O     -5.097090   -1.333520    2.159369
O      4.874683    1.983183    0.241862
O      3.570084   -2.450803    1.427690
O     -2.031707    0.621141   -2.973953
O      5.535921   -0.642291    1.155627
O      0.635557    0.344246   -2.401746
O     -0.734404    0.284405    0.922339
H     -5.763111   -0.787696   -0.284243
H     -4.266147    0.159183   -2.009377
H      2.294293    2.315642   -0.242329
H      1.125485   -1.602188    0.803080
H     -2.539465   -0.716332    2.534274
H     -1.517901    1.906208   -1.425175
H     -0.476842   -0.941640   -1.185005
H      0.028743    1.829241   -0.144983
H     -5.654458   -0.732698    2.769480
H      5.842129    1.803255    0.440589
H      2.859534   -3.143359    1.538127
H     -1.487347    1.205831   -3.559704
H      6.328364   -0.028369    1.081745
H      1.104819   -0.531759   -2.565053
