48

C      1.145352    0.405768   -0.042805
C     -0.549019   -1.040268    0.801341
C     -6.139792    0.111585    0.542141
C     -4.259239    0.597509    1.904334
C     -3.301331    1.142211   -1.685959
C      5.696622   -0.994572    0.258814
C     -0.216660    0.143665    0.198088
C     -5.574921    0.198763    1.797144
C     -4.075624    0.818772   -0.464119
C      2.092410   -0.504111    0.320629
C      4.354372   -1.210564    0.475630
C     -5.385135    0.423587   -0.594975
C      6.126028    0.163490   -0.339945
C      0.395007   -1.964663    1.172085
C     -1.849687    0.836942   -1.535181
C     -3.491856    0.912468    0.781231
C      3.433779   -0.243032    0.081956
C      5.203166    1.111930   -0.724147
C      3.837228    0.916094   -0.515154
C     -1.258189    1.154962   -0.206792
C      1.733278   -1.710956    0.937253
C      3.902834   -2.362904    1.073452
O     -6.341098   -0.116030    2.923185
O     -5.917155    0.348087   -1.872158
O      7.480880    0.373892   -0.555090
O      0.014393   -3.151706    1.780866
O     -1.650453   -0.530144   -1.780293
O      5.651369    2.275923   -1.327348
O      3.018496    1.911281   -0.930759
O      4.731351   -3.238217    1.429961
O     -2.183361    1.312314    0.841465
O      2.644068   -2.579277    1.283503
H      1.344450    1.332802   -0.510074
H     -1.611070   -1.224579    0.979421
H     -7.178081   -0.200112    0.414889
H     -3.807194    0.668997    2.883843
H     -3.415333    2.221832   -1.916125
H     -3.683321    0.510085   -2.540037
H      6.369539   -1.780696    0.584941
H     -1.309131    1.393516   -2.349633
H     -0.740162    2.154600   -0.306617
H     -6.398100   -1.033470    3.311825
H     -6.882755    0.055683   -1.954407
H      8.150763   -0.310970   -0.277948
H      0.710445   -3.823179    2.049302
H     -0.779754   -0.644892   -2.269052
H      6.635903    2.410268   -1.474660
H      3.326693    2.757315   -1.367737
