31

C      4.257564    0.310339   -0.469443
C      3.830255    0.666857    0.789385
C      3.348361   -0.206788   -1.361203
C      2.494703    0.500422    1.139166
C      2.047053   -0.358044   -0.989484
C     -1.711905   -0.138043   -1.076602
C     -2.910339   -1.833045   -0.015324
C      1.581355   -0.019231    0.242470
C     -1.624868   -1.187749    0.043872
C     -1.937046    1.075092   -0.191512
C     -3.798071   -0.573764    0.101488
C     -0.701617    0.970800    0.645893
C      0.185674   -0.208196    0.593143
O     -5.008909   -0.671326   -0.125667
O      0.110646    2.051788    0.189091
O     -0.365833   -1.438214    0.093534
O     -3.155078    0.642999    0.470152
H      5.311503    0.432620   -0.771167
H      4.569021    1.069624    1.465529
H      3.714464   -0.484197   -2.361241
H      2.230317    0.801607    2.143681
H      1.369672   -0.771713   -1.715700
H     -2.599335   -0.244834   -1.724386
H     -0.860982   -0.054923   -1.720659
H     -3.232808   -2.449809    0.847988
H     -3.193078   -2.362405   -0.944900
H     -1.759359   -0.772573    1.114779
H     -2.071933    1.996875   -0.728140
H     -0.967746    1.318225    1.694600
H      0.239542   -0.521473    1.708987
H      0.608777    2.459078    0.911670
