98

C     -6.835420    1.278934    2.217432
C      7.240245    0.453432    1.794182
C     -1.448792   -5.700609   -0.920227
C      0.175627    5.342534   -1.357499
C     -6.165750    0.192305    1.386955
C      6.601017   -0.830541    1.287223
C     -6.111714    0.663571   -0.050071
C      6.323013   -0.760761   -0.186937
C     -2.904169   -3.484291    0.191504
C      3.032992    3.921093   -0.374139
C     -3.652951   -3.002687   -0.999683
C      3.506603    2.696177    0.370013
C     -1.424052   -3.413610    0.120419
C      1.891305    4.608622    0.313556
C     -5.448838   -0.357887   -0.947804
C      5.402813    0.338933   -0.575875
C     -3.429738   -1.589852   -1.395345
C      3.325042    1.509775   -0.534543
C     -1.671567    1.926182    1.294907
C     -2.134645    2.745434   -0.795445
C      1.552651   -2.534712    0.901230
C      2.324800   -2.995375   -1.195960
C     -0.734515   -4.377782   -0.771378
C      0.564510    4.330545   -0.345960
C     -4.033086   -0.558192   -0.454773
C      4.025780    0.263222    0.060754
C     -1.463409    2.932917    0.384391
C      1.510272   -3.386853   -0.174738
C     -2.505719    0.801402    1.024786
C     -2.977284    1.637708   -1.106148
C      2.370048   -1.361658    0.951615
C      3.165191   -1.819427   -1.185819
C     -3.172077    0.639593   -0.178279
C      3.197649   -0.971186   -0.080801
C     -0.568292    4.136127    0.644352
C      0.661814   -4.625732   -0.169955
O     -2.476294   -0.037668    2.202929
O     -3.497278    1.805918   -2.454395
O      2.092106   -0.782778    2.254492
O      3.806532   -1.818589   -2.423603
O     -1.249072    5.378834    0.608995
O      1.122973   -5.758401   -0.839976
H     -6.099172    1.883331    2.777743
H     -7.548936    0.807571    2.952423
H     -7.452174    1.896016    1.551436
H      6.496875    0.985512    2.391360
H      7.622099    1.073341    0.957718
H      8.115905    0.241876    2.440999
H     -0.639863   -6.459340   -1.085779
H     -1.993249   -5.896753    0.021030
H     -2.097231   -5.630612   -1.815678
H     -0.936409    5.412618   -1.388158
H      0.515761    6.373541   -1.104908
H      0.486411    5.084965   -2.407485
H     -5.171606    0.038816    1.838294
H     -6.787730   -0.725728    1.483213
H      7.369247   -1.637414    1.434206
H      5.727960   -1.122842    1.892927
H     -7.138024    0.909156   -0.349699
H     -5.521454    1.620875   -0.029289
H      5.988503   -1.763919   -0.506232
H      7.292472   -0.587537   -0.694292
H     -3.321829   -4.473745    0.487003
H     -3.198337   -2.816601    1.061826
H      3.863590    4.651039   -0.528256
H      2.689337    3.670507   -1.413066
H     -3.359760   -3.624178   -1.890471
H     -4.751502   -3.234553   -0.885079
H      4.595072    2.809528    0.561632
H      3.024115    2.576889    1.358799
H     -1.048992   -3.599058    1.170096
H     -1.137768   -2.358059   -0.078626
H      1.856395    4.186109    1.361966
H      2.093383    5.697704    0.329760
H     -6.015215   -1.300824   -0.789004
H     -5.530441   -0.026400   -1.992998
H      5.831674    1.312705   -0.246242
H      5.284711    0.377380   -1.657958
H     -3.810705   -1.460928   -2.438577
H     -2.342246   -1.396791   -1.431937
H      2.267700    1.247128   -0.698015
H      3.746105    1.782250   -1.520724
H     -1.270334    1.797141    2.351780
H     -2.175564    3.393333   -1.734311
H      0.976230   -2.546341    1.882427
H      2.468494   -3.475354   -2.224847
H     -0.546712   -3.999209   -1.795807
H      0.628192    3.340685   -0.889263
H     -4.263049   -1.206281    0.455039
H      4.377268    0.523736    1.097160
H     -0.027537    4.103016    1.622450
H      0.529529   -5.120963    0.840586
H     -1.960605    0.210784    2.974935
H     -3.248546    2.586840   -2.966782
H      1.475104   -1.121571    2.903610
H      4.323015   -1.586466   -3.101364
H     -2.169928    5.235490    0.935883
H      1.931451   -6.093085   -0.413016
