36

C      3.460878   -1.157781    0.007026
C     -4.336582   -0.947514   -0.381109
C     -4.430732    0.436902   -0.393584
C      1.892476    2.299693   -0.327503
C      0.642931    3.063818    0.041052
C     -3.121882   -1.578335   -0.175939
C     -3.303822    1.232261   -0.199701
C      2.202550    1.246111    0.672903
C      0.102917   -2.366321    0.367975
C     -0.548897    2.483692    0.268333
C      1.352694   -2.202479   -0.426777
C     -2.009443   -0.797962    0.015438
C     -0.693541   -1.122633    0.238623
C     -2.118178    0.590069    0.000490
C      1.436783   -0.015273    0.608128
C     -0.001984    0.088927    0.359697
N      2.058080   -0.981167   -0.270498
N     -0.873981    1.096865    0.213543
H      3.773495   -2.211093   -0.165763
H      4.038387   -0.481801   -0.661658
H      3.638831   -0.952150    1.071071
H     -5.246735   -1.529039   -0.537549
H     -5.363238    0.956439   -0.551005
H      2.708020    3.051763   -0.300634
H      1.828741    1.936197   -1.367222
H      0.690368    4.120462    0.130076
H     -3.029562   -2.662150   -0.163012
H     -3.346609    2.303442   -0.204245
H      3.293792    0.984958    0.541141
H      2.164092    1.721879    1.682623
H      0.282738   -2.656240    1.424054
H     -0.468453   -3.223700   -0.094394
H     -1.370133    3.130242    0.524265
H      2.050414   -3.035573   -0.120337
H      1.115861   -2.336541   -1.502374
H      1.529725   -0.485967    1.637258
