42

C      4.517962    2.456867    0.240098
C      3.884066   -3.081483   -0.611532
C      3.826209    1.595702   -0.494296
C      3.215977   -2.028169   -0.099279
C     -2.661447    1.515426   -0.347204
C     -3.915954    0.544490    1.590675
C     -3.457230    0.564504   -1.208247
C     -4.703535   -0.313250    0.642379
C      4.045634    2.724564    1.520565
C      3.888888   -3.255978   -1.956028
C     -2.668637   -1.326689   -0.040456
C     -2.542000    0.858801    1.033866
C     -1.747814   -0.420557    0.785741
C      2.697515    1.004528    0.002264
C      2.583723   -1.191843   -0.903448
C      0.677581   -0.316080    0.269329
C      1.787089    0.026770   -0.637051
N     -3.851294   -0.631891   -0.494898
O      0.953411   -0.821054    1.386620
O      1.336240    0.588584   -1.828451
O     -0.652720   -0.121079   -0.021899
S      2.584455    1.691007    1.603863
S      2.899223   -1.862052   -2.530040
H      5.462567    2.976953   -0.121879
H      4.444731   -3.832504    0.021948
H      4.136208    1.320532   -1.541491
H      3.207085   -1.876038    1.022178
H     -3.069499    2.525684   -0.297045
H     -1.617061    1.499773   -0.755541
H     -4.426760    1.513626    1.752834
H     -3.762778    0.037034    2.560370
H     -2.890144    0.225796   -2.109859
H     -4.352699    1.101583   -1.589177
H     -5.050465   -1.252612    1.072525
H     -5.584423    0.219006    0.224524
H      4.443373    3.403271    2.325671
H      4.339265   -4.000903   -2.584195
H     -2.959673   -2.235024    0.542634
H     -2.149236   -1.707022   -0.953793
H     -1.984963    1.486551    1.732718
H     -1.519324   -0.855324    1.757920
H      0.636454    1.248501   -1.569159
