84

C     -4.231848   -5.181911   -1.465317
C      6.290736    1.032354    2.528560
C      2.104222    1.458978   -0.838702
C      4.900212   -1.628719   -0.588497
C      0.462773   -3.755992   -0.174612
C      1.848720    3.134985    2.039536
C     -0.326943   -2.500175   -0.153331
C      1.299276    1.796053    2.157098
C      1.167104    4.187763    1.679016
C      1.553856   -3.847510   -0.926945
C      6.442715    0.759957    0.147927
C      7.794485    1.335695    0.269748
C     -2.170750   -4.151376   -0.573986
C     -4.476416   -3.064777   -0.358002
C     -5.422892    1.274960   -0.304539
C     -4.228524    3.382976   -0.770333
C     -4.087951   -0.714757    0.386125
C     -2.351832    4.661584    1.240284
C     -3.633924   -4.196422   -0.834340
C      5.711222    0.605145    1.198774
C      1.762941    0.358063    0.150250
C      4.028566   -0.442412   -0.237700
C     -5.364177    2.494786   -1.182726
C     -1.815154   -2.771976   -0.092596
C     -3.817660   -1.740453   -0.679819
C     -4.036698    0.662514   -0.289522
C     -2.135675    3.551754    0.466819
C      2.188151    0.735598    1.552236
C     -2.984469    2.652806   -0.368949
C     -0.244755    4.164609    1.345029
C      2.053004   -2.763737   -1.764315
C      4.339397    0.052980    1.139753
C      2.552559   -0.884548   -0.206858
N      8.802782    1.760421    0.379220
N     -0.826718    3.264413    0.547050
O     -5.310636    2.202796   -2.526702
O      2.435683   -3.103831   -2.942431
O     -1.205906    5.005560    1.752510
O     -2.464500   -1.851378   -0.909579
O     -3.214115    1.519784    0.394114
O      3.500606    1.126671    1.476847
O      2.147254   -1.447175   -1.415604
H     -3.681978   -6.039827   -1.842232
H     -5.300141   -5.200379   -1.647383
H      6.198757    2.127007    2.678664
H      5.810747    0.426655    3.325479
H      7.371061    0.801196    2.475422
H      2.951656    2.094089   -0.473053
H      2.324918    1.047975   -1.850648
H      1.246880    2.162046   -0.988569
H      5.242938   -1.511104   -1.629738
H      5.776656   -1.611530    0.084701
H      4.336196   -2.585651   -0.474983
H      0.123449   -4.586854    0.435327
H      2.913237    3.275370    2.267064
H     -0.128265   -1.841317   -1.004008
H     -0.072744   -1.994455    0.806937
H      1.250050    1.569951    3.267791
H      0.295269    1.690190    1.758558
H      1.678235    5.187439    1.616067
H      2.069196   -4.817849   -0.879530
H      6.143784    0.511083   -0.835015
H     -1.980493   -4.926585    0.212021
H     -1.677151   -4.452011   -1.513798
H     -4.660777   -3.104517    0.728708
H     -5.490104   -3.074466   -0.828516
H     -5.631916    1.611687    0.737003
H     -6.159370    0.547978   -0.639456
H     -3.997857    4.037777   -1.648568
H     -4.567308    4.096707    0.036230
H     -5.099642   -0.822143    0.843210
H     -3.319715   -0.711533    1.181167
H     -3.319962    5.138859    1.375480
H      0.666450    0.213619    0.068033
H      4.179520    0.355862   -0.964443
H     -6.301515    3.090499   -1.022115
H     -2.199621   -2.686090    0.956951
H     -4.280196   -1.345758   -1.617500
H     -3.684682    0.586854   -1.336645
H      2.120766   -0.171354    2.175463
H     -2.445261    2.336138   -1.287166
H      4.261310   -0.752205    1.911569
H      2.473529   -1.565763    0.669318
H     -4.470627    1.756356   -2.789759
