46

C      7.130288    2.062422   -0.049149
C     -6.069899   -0.205166    1.409747
C      4.685070    1.503686    0.070849
C      2.369768    0.853256    0.146214
C      1.648933   -1.355433   -0.476220
C     -4.169958    0.111127   -1.679740
C      5.981831    1.126639   -0.209904
C      3.684868    0.561471   -0.110002
C      1.347373   -0.095251   -0.033014
C      2.974816   -1.664118   -0.739309
C     -3.301878   -0.428093   -0.565556
C      3.968344   -0.709620   -0.554419
C     -2.748778    0.437105    1.710222
C     -1.674887   -0.609251    1.544555
C     -3.871147    0.079608    0.748049
C      5.304268   -1.001215   -0.812498
C     -1.104553   -0.469617    0.148298
O     -4.233346    1.519357   -1.627174
O      3.317599   -2.932411   -1.190150
O     -2.175709    1.668383    1.381319
O     -2.152357   -1.901241    1.749248
O      5.559878   -2.166668   -1.219514
O     -4.801618   -0.753529    1.292487
O      6.233277   -0.090232   -0.633003
O      0.070280    0.272324    0.243420
O     -2.033016    0.101882   -0.724541
H      7.751617    2.007159   -0.986747
H      6.786719    3.084222    0.156643
H      7.742519    1.736273    0.792993
H     -6.796619   -0.910306    1.857273
H     -6.068095    0.792039    1.905698
H     -6.428821   -0.009398    0.371192
H      4.457680    2.502614    0.420583
H      2.136493    1.857441    0.497642
H      0.914406   -2.150315   -0.641619
H     -3.747339   -0.142564   -2.680025
H     -5.179088   -0.317955   -1.648004
H     -3.336705   -1.531004   -0.637347
H     -3.096261    0.516344    2.744532
H     -0.891776   -0.428905    2.276432
H     -4.367633    1.044923    0.514326
H     -0.882093   -1.482023   -0.217609
H     -4.446812    1.903867   -2.516333
H      2.579359   -3.605812   -1.316195
H     -1.217662    1.681736    1.591007
H     -1.849334   -2.463752    0.995842
