37

C      0.879604    2.969506   -0.228892
C     -3.460293    0.680764    0.697214
C     -2.756538   -0.382718   -1.448981
C      2.234193    0.978029   -0.553339
C     -1.261275    1.141668   -0.224299
C     -1.694627   -1.008722    0.736840
C      3.996106   -0.665771    0.289133
C      2.826351   -2.447162    0.607109
C      1.110890    1.563936    0.274345
C      2.680452   -0.342538   -0.063722
C     -0.097848    0.738321    0.259331
C     -0.245224   -0.649555    0.761843
C      1.958195   -1.489817    0.147079
C      0.499317   -1.651008   -0.085399
C     -2.300185    0.069048   -0.095066
O      0.083547   -2.913151    0.285429
O      4.004368   -1.909100    0.670376
H      1.831953    3.461326   -0.517929
H      0.411389    3.613987    0.542944
H      0.241387    2.998617   -1.134280
H     -4.404582    0.162913    0.505712
H     -3.151789    0.687855    1.758580
H     -3.528499    1.740283    0.351249
H     -3.844050   -0.656805   -1.436488
H     -2.126322   -1.215504   -1.784386
H     -2.656831    0.446545   -2.196762
H      1.928367    0.972176   -1.609930
H      3.092656    1.674852   -0.458923
H     -1.532869    2.107474   -0.678370
H     -1.867376   -2.010617    0.269732
H     -2.142534   -1.059689    1.752617
H      4.816870    0.049071    0.229412
H      2.516244   -3.472993    0.860436
H      1.477676    1.638184    1.320338
H      0.143154   -0.758954    1.798327
H      0.213404   -1.484140   -1.143315
H      0.124721   -3.576313   -0.457966
