69

C     -1.886365   -3.748882   -1.209458
C     -2.853552   -4.360391    0.970431
C     -4.202519   -3.162466   -0.687112
C     -4.002319    4.534271    0.180240
C     -3.799967    4.163585   -1.274832
C     -4.030565    3.298258    1.076153
C     -2.990810    2.858230   -1.318993
C      4.332298   -1.584126    0.239340
C      5.450708   -2.300174   -0.145584
C      8.206201   -0.200310    0.313708
C      8.880498   -1.292181   -0.158675
C      5.774846    0.233216    0.740895
C     -2.860189    1.164458    1.388490
C      2.009031    0.227803    0.906242
C     -0.784321    2.051808   -0.392765
C      0.071710   -0.150055   -0.486109
C     -2.686154    2.616270    1.124797
C      6.861931   -0.502853    0.352436
C     -1.983058    2.905794   -0.181415
C      4.483641   -0.294357    0.691796
C      1.536282    0.228556   -0.525185
C      6.730738   -1.779246   -0.097878
C     -1.812906    0.245695    0.906654
C     -2.426595   -0.897243    0.153732
C     -2.828020   -3.278006   -0.120033
N      7.957210   -2.250748   -0.405574
N      3.389810    0.510396    1.092006
N     -2.306917   -2.104656    0.491610
N     -0.707712    0.816650    0.257774
O      1.737926    1.466845   -1.137802
O     -3.174078   -0.610594   -0.987788
H     -2.231766   -3.354286   -2.166819
H     -0.824233   -3.519383   -0.978863
H     -1.977194   -4.872131   -1.297359
H     -1.815777   -4.756199    1.020423
H     -3.174364   -3.887173    1.922443
H     -3.580648   -5.136527    0.657904
H     -4.183808   -3.253033   -1.802540
H     -4.737395   -2.225459   -0.365145
H     -4.815994   -4.012153   -0.326063
H     -3.275656    5.270936    0.535459
H     -5.008061    4.992149    0.270308
H     -3.274117    4.976075   -1.796797
H     -4.749290    3.979801   -1.807810
H     -4.844284    2.636150    0.742921
H     -4.308590    3.695221    2.094698
H     -3.748462    2.061852   -1.173676
H     -2.444692    2.755749   -2.258975
H      3.357561   -2.040496    0.190938
H      5.326050   -3.319608   -0.503197
H      8.657065    0.731897    0.603144
H      9.934530   -1.354943   -0.298256
H      5.906495    1.245890    1.095067
H     -3.849465    0.856504    0.933813
H     -3.067325    1.070951    2.498220
H      1.826789   -0.810367    1.288571
H      1.381447    0.891660    1.506089
H      0.104602    2.656015   -0.021200
H     -0.590680    2.001830   -1.506554
H     -0.270412   -0.270163   -1.534250
H      0.020893   -1.157715   -0.016396
H     -2.099023    3.099045    1.931529
H     -1.688240    3.997905   -0.115395
H      2.092416   -0.541926   -1.089226
H     -1.391964   -0.252705    1.842798
H      8.187923   -3.195306   -0.775415
H      3.629424    1.423697    1.585263
H      2.512622    1.951313   -0.796506
H     -3.073162   -1.140612   -1.846247
