69

C     -1.390831    3.577003   -1.490629
C     -3.795366    3.641328   -1.255088
C     -2.323992    4.286288    0.647018
C     -4.587788   -3.596022   -0.960282
C     -3.148767   -3.861811   -1.313863
C     -4.773404   -2.532840    0.046780
C     -2.441184   -4.121875   -0.005089
C      4.107480    1.240737   -0.038464
C      5.089499    1.849154   -0.824241
C      7.960986   -0.166184   -0.546202
C      8.445758    0.810488   -1.392844
C      5.662635   -0.428155    0.503396
C     -3.104924   -0.669669   -0.008312
C      1.986422   -0.239828    1.412944
C     -1.053689   -2.256809    0.698979
C     -0.035019   -0.252811   -0.074491
C     -3.560871   -1.971897    0.679522
C      6.640611    0.157372   -0.264901
C     -2.408842   -2.864435    0.867998
C      4.384474    0.082715    0.641569
C      1.404467   -0.647497    0.107394
C      6.348237    1.322174   -0.944471
C     -2.110803   -0.107445    0.989781
C     -1.905697    1.340955    0.812525
C     -2.510922    3.318118   -0.472269
N      7.465997    1.701216   -1.625677
N      3.396241   -0.553071    1.429300
N     -2.533231    1.945620   -0.101782
N     -0.921445   -0.872165    0.877963
O      1.590492   -2.025541   -0.029103
O     -1.040649    2.038406    1.630288
H     -1.369698    2.820884   -2.281028
H     -0.445713    3.699293   -0.949727
H     -1.605858    4.587680   -1.947640
H     -4.683907    3.406716   -0.650931
H     -3.767916    3.098666   -2.221443
H     -3.833031    4.727890   -1.489523
H     -3.099862    5.098887    0.527940
H     -2.501514    3.877838    1.653705
H     -1.356152    4.851659    0.565358
H     -5.171565   -3.437641   -1.914231
H     -4.991707   -4.575994   -0.568454
H     -2.685742   -3.058657   -1.911428
H     -3.111161   -4.785852   -1.898015
H     -5.517545   -2.884816    0.821935
H     -5.317926   -1.677401   -0.455550
H     -1.406646   -4.448276   -0.267464
H     -2.925420   -4.963451    0.484771
H      3.122609    1.702691    0.036182
H      4.851648    2.769761   -1.358502
H      8.489737   -1.023975   -0.164555
H      9.431496    0.881094   -1.814857
H      5.911632   -1.346180    1.031815
H     -3.963948    0.004182   -0.158639
H     -2.564273   -0.870280   -0.936402
H      1.917522    0.857267    1.603311
H      1.520134   -0.730231    2.287841
H     -0.310243   -2.765440    1.369151
H     -0.673742   -2.509644   -0.337835
H     -0.163126    0.839910   -0.171034
H     -0.339556   -0.664971   -1.082842
H     -3.895881   -1.587772    1.694633
H     -2.443218   -3.281409    1.918532
H      1.986433   -0.193840   -0.713692
H     -2.497742   -0.241885    2.042987
H      7.472850    2.557683   -2.209426
H      3.759120   -1.321219    2.075998
H      1.769556   -2.311853   -0.940481
H     -0.425518    2.755167    1.248172
