50

C     -4.522935    0.228923    4.382448
C      6.226567   -0.376006   -2.136319
C      0.464825    2.944953   -1.263886
C     -0.928400    3.175576   -1.157954
C      5.038833    0.352201   -1.893583
C     -1.509185   -0.249998    2.848578
C      0.196927    0.806829   -0.203204
C     -2.972487    0.781589    1.393633
C      7.377394   -2.254455   -3.176540
C      4.977262   -1.837886   -3.568560
C     -1.594891   -2.338230    1.660434
C      6.182225   -1.461517   -2.966360
C     -1.264564   -0.912327    1.435194
C      1.001180    1.839677   -0.822603
C     -3.012665    0.082480    2.702037
C     -1.123677    1.026996   -0.102320
C     -1.725022    2.178837   -0.562195
C      3.860023   -0.033709   -2.492369
C      2.598263    0.580058   -2.154887
C     -3.027517   -2.001843   -0.682774
C     -1.978348   -0.076903    0.495327
F     -3.063538    2.398155   -0.515477
N      8.320038   -2.871222   -3.328327
N     -3.063058   -2.623296   -1.773993
N      3.936646   -1.072854   -3.266567
N      2.379444    1.419716   -0.979844
N     -2.804853   -0.606144   -0.557266
O      1.539197    0.434299   -2.850595
O     -3.474516    0.899990    3.710558
S     -3.232233   -2.784396    0.939971
H     -4.954886    0.852815    5.175073
H     -5.246146   -0.129070    3.639879
H     -4.050666   -0.705310    4.835795
H      7.148864   -0.097923   -1.673573
H      1.057549    3.765223   -1.739550
H     -1.291965    4.099210   -1.525779
H      5.079211    1.198425   -1.240196
H     -0.923542    0.646510    2.982928
H     -1.339989   -0.984755    3.633091
H      0.777130   -0.037405    0.093329
H     -3.923207    0.891870    0.881932
H     -2.516297    1.778322    1.594756
H      4.915671   -2.671078   -4.221974
H     -1.629329   -2.553843    2.746424
H     -0.844115   -3.039626    1.220187
H     -0.122327   -0.913251    1.349056
H     -3.589646   -0.846440    2.625549
H     -3.230566   -3.630036   -1.853797
H      3.125913    1.655389   -0.363015
H     -3.242591    0.071904   -1.272671
