31

C      1.849216    2.512338   -0.652975
C     -3.478897   -0.848184   -0.036659
C     -2.119441   -1.032379   -0.646321
C      2.445103   -1.136923    0.201700
C      1.539614    1.117986   -0.140838
C      2.783389    0.253041   -0.261517
C      0.989386   -1.376916    0.393064
C     -3.823601    0.611087    0.052361
C      0.096963   -0.644051   -0.555531
O      3.832243    0.794418    0.446691
O      0.763703   -2.757950    0.185783
O     -3.046608    1.502884   -0.342358
O     -5.044882    0.990943    0.590088
O     -1.113781   -0.419532    0.082636
O      0.583248    0.574094   -0.974080
H      0.958788    2.954660   -1.169549
H      2.657520    2.481570   -1.437208
H      2.129641    3.200307    0.172563
H     -3.460470   -1.260069    1.001364
H     -4.225414   -1.342833   -0.662433
H     -1.884443   -2.091608   -0.738561
H     -2.114457   -0.562801   -1.669110
H      2.973413   -1.299536    1.172113
H      2.895569   -1.859736   -0.515070
H      1.208826    1.167127    0.920359
H      3.057466    0.236771   -1.336150
H      0.699511   -1.189321    1.451132
H     -0.099644   -1.248136   -1.460802
H      3.829420    1.768159    0.402205
H      0.686868   -2.860855   -0.813931
H     -5.568247    1.765446    0.196785
