68

C     -3.766247    3.395787    0.892009
C     -1.992857    4.769650   -0.013435
C     -2.735367    2.777369   -1.205042
C     -3.868303   -4.121711    0.515570
C     -2.672135   -4.370512   -0.392175
C      5.483937    1.824704   -2.066513
C     -3.397084   -2.977266    1.402077
C     -2.622795   -3.251664   -1.362013
C      6.677181    1.909863   -1.375730
C      4.402503    1.127738   -1.562327
C      6.089748    0.057864    1.587411
C      7.386049    0.449721    1.795670
C     -2.102838   -0.932838    1.393807
C     -1.950175   -0.937179   -1.480116
C     -0.019132   -1.440646   -0.359917
C      2.212801   -0.323213   -0.460279
C     -3.141932   -1.724517    0.615343
C     -2.908132   -1.875783   -0.823437
C      1.242754   -1.183772    0.370714
C      5.698999    0.574590    0.364610
C      6.764254    1.277799   -0.161420
C     -1.655944    0.189109    0.486136
C      4.511249    0.495257   -0.332815
C     -1.196960    1.392092    1.162861
C     -2.414714    3.293055    0.153385
N      7.770354    1.177340    0.739564
N     -1.552492    2.581791    0.966221
N     -0.928574   -0.370666   -0.575442
O      1.931743   -2.436422    0.425323
O     -0.243523    1.267000    2.165217
O      3.451907   -0.212925    0.204130
H     -4.318602    2.446952    0.738344
H     -4.369601    4.181508    0.365512
H     -3.625948    3.648818    1.949253
H     -2.196638    5.246164    0.959650
H     -0.919656    4.765816   -0.276432
H     -2.650390    5.195786   -0.785908
H     -3.722416    2.221734   -1.236802
H     -1.920366    2.260441   -1.707627
H     -2.958924    3.670534   -1.863796
H     -4.086299   -4.979184    1.170923
H     -4.748526   -3.774381   -0.062549
H     -1.754380   -4.408129    0.218536
H     -2.793092   -5.323125   -0.959001
H      5.346406    2.304259   -3.037899
H     -4.163489   -2.865151    2.196080
H     -2.484954   -3.359641    1.922554
H     -1.611984   -3.304285   -1.870179
H     -3.306593   -3.542521   -2.219453
H      7.515879    2.461888   -1.786178
H      3.458364    1.049960   -2.091030
H      5.449558   -0.538746    2.225930
H      7.985473    0.205220    2.671576
H     -2.565108   -0.462223    2.284280
H     -1.277717   -1.558152    1.764406
H     -1.343040   -1.428861   -2.294283
H     -2.412148   -0.057561   -1.971149
H     -0.539998   -2.369558    0.035989
H      0.295392   -1.782499   -1.396834
H      1.768184    0.687889   -0.520258
H      2.334936   -0.770376   -1.472635
H     -4.088548   -1.113024    0.781239
H     -3.896057   -1.611077   -1.337471
H      1.195945   -0.738250    1.352488
H     -2.669862    0.509208    0.025143
H      8.712179    1.621536    0.597920
H      2.207368   -2.614696   -0.512159
H     -0.299619    1.722109    3.072432
