56

C     -2.263695    3.035110    0.083598
C     -2.118218    3.228497   -2.334438
C     -5.998369   -1.327960   -0.358573
C     -4.727017   -3.332649   -0.302146
C      3.976819    0.270922    1.589320
C     -4.897360   -0.633049    0.095787
C     -3.627368   -2.650514    0.149666
C      5.121878    0.258694    2.398675
C      7.843836    0.167774    0.217772
C      8.522636    0.171414    1.417216
C      5.378883    0.212174   -0.307106
C     -1.731212    1.033594   -1.275921
C     -0.477669   -0.881321   -0.806999
C      1.745803    0.267729   -0.787977
C     -1.542499    2.491979   -1.128151
C      6.495165    0.200617    0.491982
C     -5.929486   -2.709002   -0.567757
C      0.924396   -0.893435   -0.264604
C      4.076280    0.247741    0.223968
C     -3.716357   -1.294300    0.348528
C      6.376921    0.223587    1.847494
N      7.598433    0.205936    2.401007
N     -1.322073    0.152229   -0.295377
N     -7.040455   -3.442128   -1.031566
O      1.005189   -1.035223    1.090003
O     -8.214298   -2.802639   -1.285650
O     -6.942632   -4.658905   -1.204586
O     -1.522837   -1.428858    1.740991
O     -2.725114    0.614391    1.963041
O      3.067840    0.254523   -0.617403
S     -2.305665   -0.395193    0.927887
H     -3.271448    2.575719    0.141300
H     -1.667847    2.943827    1.005158
H     -2.486617    4.138680   -0.045791
H     -2.771918    2.501153   -2.894348
H     -1.319555    3.515657   -3.021807
H     -2.760163    4.072678   -2.044882
H     -6.929867   -0.804394   -0.557572
H     -4.615531   -4.415226   -0.448439
H      3.060951    0.309094    2.132033
H     -4.999334    0.451748    0.245390
H     -2.698475   -3.209114    0.342028
H      5.022400    0.277014    3.473272
H      8.332271    0.142851   -0.744680
H      9.591129    0.150587    1.544989
H      5.519268    0.193044   -1.377974
H     -1.238904    0.748002   -2.259079
H     -2.827175    0.861878   -1.521047
H     -0.384122   -0.749521   -1.923712
H     -0.955461   -1.868242   -0.639557
H      1.227600    1.212092   -0.432188
H      1.531074    0.309422   -1.913662
H     -0.492391    2.822800   -1.045293
H      1.421357   -1.804830   -0.746190
H      7.840453    0.216067    3.414071
H      0.840552   -0.142723    1.505576
