68

C     -2.073865   -3.819436    0.940044
C     -4.323537   -3.336547   -0.026156
C     -2.499285   -4.202585   -1.429068
C     -3.181105    4.894828    0.245733
C     -1.973339    5.367615   -0.504698
C      5.687438   -2.698174    1.474832
C     -3.770302    3.628182   -0.257483
C     -0.914821    4.341398   -0.692007
C      6.789828   -2.534240    0.666035
C      4.537070   -1.973268    1.205092
C      5.865396   -0.181926   -1.750935
C      7.172641   -0.422138   -2.169879
C     -3.210567    1.305384   -0.688162
C     -1.190326    2.336028    0.783797
C     -0.085397    0.205513    1.017121
C      2.211887   -0.537091    0.696545
C     -2.818748    2.732197   -0.985183
C     -1.382190    2.929634   -0.596628
C      1.113869    0.384284    0.154742
C      5.622471   -0.965918   -0.642779
C      6.784838   -1.663449   -0.413380
C     -2.027244    0.418281   -0.410327
C      4.486777   -1.106713    0.154983
C     -2.589320   -0.903726    0.027446
C     -2.847608   -3.280613   -0.260196
N      7.705070   -1.331620   -1.331666
N     -2.355789   -1.984641   -0.604739
N     -1.235181    0.914311    0.652442
O      0.854480   -0.013141   -1.152963
O     -3.392497   -0.922274    1.170562
O      3.351102   -0.377810   -0.127053
H     -1.274491   -3.088585    1.234218
H     -1.550672   -4.765555    0.718900
H     -2.758906   -4.035939    1.797262
H     -4.762570   -4.101102   -0.696575
H     -4.783005   -2.370698   -0.316662
H     -4.600539   -3.651145    1.004343
H     -3.180469   -5.079161   -1.338284
H     -1.454918   -4.549042   -1.354722
H     -2.746775   -3.725471   -2.400194
H     -2.954141    4.877340    1.343914
H     -3.954069    5.714069    0.146984
H     -2.257940    5.833803   -1.476222
H     -1.525069    6.207308    0.098257
H      5.730308   -3.377144    2.295926
H     -4.272996    3.081532    0.585413
H     -4.607104    3.863293   -0.972797
H     -0.080217    4.477430    0.047977
H     -0.422364    4.543124   -1.688016
H      7.726604   -3.081157    0.831930
H      3.703879   -2.134305    1.861851
H      5.136795    0.477000   -2.170358
H      7.638289    0.056727   -3.019770
H     -3.793139    0.856129   -1.522500
H     -3.879206    1.244514    0.207557
H     -0.281218    2.670456    1.281781
H     -2.050647    2.648299    1.409502
H     -0.320572   -0.880840    1.060702
H      0.200386    0.480296    2.069805
H      2.415513   -0.272388    1.741031
H      1.850390   -1.568571    0.552217
H     -2.887888    2.869741   -2.085415
H     -0.776532    2.325024   -1.303706
H      1.548194    1.405904    0.200740
H     -1.458180    0.244701   -1.351619
H      8.680204   -1.687561   -1.424505
H      1.090950   -0.981844   -1.290605
H     -3.399631   -1.728528    1.777110
