31

C     -2.421083   -0.396993    2.130997
C      3.681682    0.074960   -0.158340
C      2.275823    0.606663    0.028693
C     -2.101038   -0.010375   -1.599877
C     -1.937215   -0.601284    0.715634
C     -2.565875    0.436288   -0.210153
C     -0.618519    0.305071   -1.616850
C      3.880965   -1.182213    0.564652
C      0.029271    0.152611   -0.283661
O     -3.936350    0.345835   -0.127687
O     -0.519911    1.638154   -2.061741
O      2.921459   -1.657748    1.224048
O      5.070791   -1.855426    0.547922
O      1.337420   -0.304396   -0.439975
O     -0.587018   -0.691860    0.588617
H     -3.461490   -0.814271    2.255724
H     -2.486426    0.675406    2.413583
H     -1.761383   -0.888202    2.858598
H      3.932531    0.001140   -1.252963
H      4.371479    0.868482    0.237801
H      2.143893    0.816659    1.111320
H      2.242827    1.562196   -0.570200
H     -2.210457   -1.131646   -1.638940
H     -2.639848    0.488097   -2.403205
H     -2.377734   -1.583818    0.373504
H     -2.175727    1.441229   -0.017783
H     -0.175002   -0.313876   -2.416404
H      0.106490    1.153857    0.189103
H     -4.353776    1.230085   -0.280669
H     -0.880743    2.239861   -1.382426
H      5.214964   -2.604484    1.220680
