62

C     -5.594973   -0.335387   -2.665237
C     -0.721534   -4.124260    1.112765
C      1.422470    3.183934    0.053694
C      1.675554    4.552128    0.197527
C     -3.248204   -0.404408   -1.174832
C     -1.612321   -1.494817    0.054989
C     -1.577351    5.975032    0.233009
C     -3.186282    4.233704   -0.001410
C      2.998945   -3.299715   -0.317954
C     -2.043471   -0.305177   -0.436608
C     -2.891897    5.570666    0.143358
C      0.115814    2.774973   -0.022357
C     -0.559516    5.048943    0.178934
C     -2.170448    3.268903   -0.057969
C     -3.934059   -1.553807   -1.395154
C     -2.301810   -2.707878   -0.155942
C      2.838401   -2.094047    0.640590
C     -0.877763    3.719094    0.038358
C     -3.463375   -2.730970   -0.883195
C      4.177072   -1.388260    0.558260
C      3.864502    0.110929    0.386895
C      2.748168    0.351599    1.384169
C     -1.538567    1.028445   -0.262303
C     -0.235469    1.410340   -0.171415
C      1.488590   -0.164151    0.771286
O      4.057386   -4.091025    0.143224
O     -3.790241    6.462341    0.198929
O     -4.183601   -3.892319   -1.124057
O      4.863597   -1.487408    1.787058
O      3.337600    0.189991   -0.920546
O      2.979728   -0.497857    2.517768
O     -5.130814   -1.572495   -2.144830
O     -1.862715   -3.914646    0.345408
O      0.703213    5.414033    0.254409
O     -2.458266    2.016548   -0.197848
O      1.769625   -1.403822    0.190038
O      0.841130    0.568831   -0.209314
H     -6.451551   -0.481469   -3.350472
H     -4.762828    0.135145   -3.262255
H     -5.902699    0.368195   -1.876379
H     -0.932985   -4.019107    2.217382
H      0.049475   -3.412169    0.842650
H     -0.387413   -5.193713    0.977202
H      2.222400    2.492049   -0.046649
H      2.698402    4.907812    0.263466
H     -3.651979    0.506670   -1.596211
H     -0.758060   -1.578055    0.661341
H     -1.318113    7.033606    0.348278
H     -4.210778    3.945329   -0.070136
H      3.157272   -2.939636   -1.352402
H      2.096812   -3.919514   -0.244823
H      2.680550   -2.597983    1.637429
H      4.801197   -1.714737   -0.291424
H      4.742357    0.738393    0.536979
H      2.724457    1.337517    1.830806
H      0.787384   -0.257905    1.671155
H      4.656919   -4.374018   -0.566986
H      4.554859   -3.661068    0.875502
H     -5.031331   -3.924244   -1.651969
H      5.742266   -1.069673    1.743677
H      3.727884   -0.509046   -1.500558
H      2.266383   -0.230367    3.154704
