50

C     -5.882559   -0.778241   -2.602720
C      5.718581    3.347299    1.107547
C      1.832226   -1.779764   -0.742809
C      0.773319   -2.655709   -1.024764
C      4.692015    2.445001    0.807146
C     -4.198865   -1.957094    0.007620
C      0.298805   -0.202477    0.073341
C     -2.820742   -0.533973   -1.261944
C      8.101450    4.021901    1.073186
C      7.294553    1.917102    0.108330
C     -3.435356   -1.322184    2.208823
C      7.020673    3.093953    0.763670
C     -2.947933   -1.657334    0.821258
C      1.638873   -0.541971   -0.193185
C     -4.257277   -0.905920   -1.055530
C     -0.737992   -1.067700   -0.205305
C     -0.533250   -2.305152   -0.756514
C      5.013437    1.299841    0.160806
C      3.995065    0.277800   -0.195218
C     -1.790354    0.952268    2.022436
C     -2.152782   -0.640383    0.119271
F     -1.564265   -3.133520   -1.034258
N      8.946798    4.770250    1.329240
N     -1.356000    2.061601    2.459138
N      6.295897    1.069996   -0.167803
N      2.651111    0.402284    0.117123
N     -2.107677    0.672177    0.664632
O      4.419386   -0.733525   -0.809495
O     -4.760416   -1.492814   -2.231886
S     -2.079932   -0.472792    3.117591
H     -6.356575   -1.158325   -3.518239
H     -5.612096    0.284725   -2.661273
H     -6.608142   -0.870053   -1.747267
H      5.469581    4.270879    1.627350
H      2.810925   -2.122796   -0.972428
H      0.971333   -3.632268   -1.462930
H      3.662322    2.691918    1.102930
H     -5.129255   -1.927325    0.652467
H     -4.158174   -2.967943   -0.467818
H      0.120035    0.771722    0.503000
H     -2.364164   -1.233309   -1.986175
H     -2.792198    0.516133   -1.620447
H      8.326759    1.688192   -0.179520
H     -4.233583   -0.559582    2.102925
H     -3.782384   -2.212683    2.730435
H     -2.423142   -2.650540    0.947287
H     -4.883337   -0.037804   -0.743139
H     -1.143277    2.200128    3.464805
H      2.372681    1.294784    0.641020
H     -2.314099    1.503227    0.052958
