34

C     -5.072071   -0.762381   -0.832038
C     -4.288483    1.196740    0.632957
C      4.969982    0.662135   -1.211160
C      2.557597   -0.907958    1.131146
C      3.635519   -1.197640    0.074927
C      1.921976    0.363670    0.702361
C     -2.787496   -0.596831   -0.062423
C     -0.360467   -0.653668    0.488065
C     -3.988982   -0.074056   -0.082496
C      4.618131   -0.101663    0.020260
C      0.636550    0.451721    0.422996
C     -1.678149    0.076315    0.685026
C     -0.120150    1.616841   -0.024223
O      5.190356    0.208588    1.060686
O      0.439806    2.678500   -0.428044
O     -1.491816    1.353126    0.071427
H     -6.030068   -0.725436   -0.245295
H     -5.167889   -0.278367   -1.832861
H     -4.792796   -1.851797   -0.963311
H     -5.378897    1.345614    0.761306
H     -3.932551    2.071929    0.053168
H     -3.774504    1.231853    1.603591
H      6.002328    1.019820   -1.173432
H      4.345851    1.583840   -1.307046
H      4.880519    0.044062   -2.135426
H      1.814646   -1.729738    1.150588
H      3.080404   -0.838177    2.102365
H      4.106170   -2.158470    0.438352
H      3.159551   -1.430987   -0.882998
H      2.527532    1.225858    0.619858
H     -2.580597   -1.511015   -0.584261
H     -0.176242   -1.358712    1.315326
H     -0.384310   -1.162886   -0.488482
H     -1.881452    0.209170    1.754272
