34

C     -2.676278   -1.447008    0.476600
C     -4.723042   -0.160958    1.288381
C      4.831453   -1.163078    1.265052
C      2.301490    0.408893    0.039498
C      3.035982   -0.781228   -0.559352
C      1.686436    1.204578   -1.022249
C     -3.080539    0.867033   -0.157377
C     -0.603706    0.976426   -0.065835
C     -3.468700   -0.195549    0.499298
C      3.655800   -1.634528    0.459449
C      0.407995    1.440397   -1.047928
C     -1.838527    0.867299   -0.945540
C     -0.380223    2.204490   -2.025332
O      3.196403   -2.758185    0.656580
O      0.164454    2.877837   -2.966210
O     -1.721681    2.053357   -1.733198
H     -3.405576   -2.291530    0.564848
H     -1.941140   -1.515791    1.305894
H     -2.207818   -1.567207   -0.520389
H     -4.956219    0.882360    1.640476
H     -5.535558   -0.550008    0.635692
H     -4.573467   -0.836696    2.160567
H      5.414699   -0.455032    0.680631
H      4.442055   -0.707937    2.213207
H      5.452119   -2.013735    1.565732
H      1.573039    0.005598    0.758102
H      3.040279    0.999016    0.647182
H      3.798259   -0.445388   -1.310084
H      2.312779   -1.384340   -1.155114
H      2.319380    1.602681   -1.811287
H     -3.669553    1.775539   -0.129100
H     -0.753443    1.735624    0.732792
H     -0.384998   -0.021638    0.343882
H     -1.712154    0.028708   -1.624916
