52

C      1.037398   -0.323831    1.450267
C     -3.784859    0.288766   -1.716610
C     -7.830940   -0.498987    0.063207
C     -6.647773   -0.217534   -0.629042
C      5.026160   -0.079517    1.066343
C      3.733127    0.367094    0.946218
C      0.921078    0.113066   -1.243245
C     -7.771475   -0.839424    1.386637
C     -0.554774    0.339239   -1.169824
C      5.258615   -0.027725   -1.283060
C     -0.300508    1.585137    0.841787
C     -1.849377   -0.291257    0.829641
C      1.150581    1.083789    0.962718
C      5.864650   -0.306306   -0.054597
C      1.773274    1.119959   -0.489442
C      3.154604    0.624878   -0.264138
C      3.961106    0.420214   -1.376917
C     -5.425513   -0.283326    0.015983
C     -3.313539   -0.292794    0.648153
C     -5.411922   -0.626743    1.336992
C      8.255455   -1.144629    0.245369
F      3.423157    0.681162   -2.595773
F      9.197697   -0.826122   -0.764756
F      8.332782   -2.563244    0.378632
F      8.859714   -0.616558    1.404908
N     -6.574088   -0.901928    2.014566
N     -4.148781   -0.633058    1.723344
N     -4.123516   -0.089617   -0.364164
N     -1.038084    0.543946    0.156070
O      7.079779   -0.739443    0.097899
H      0.580107   -0.272998    2.464131
H      1.929218   -0.952890    1.516333
H      0.411191   -0.862715    0.700138
H     -4.702188    0.497328   -2.317601
H     -3.286011   -0.551221   -2.249867
H     -3.208842    1.216895   -1.690136
H     -8.755779   -0.438005   -0.482919
H     -6.656034    0.050666   -1.690449
H      5.467774   -0.282324    2.026912
H      3.181903    0.598034    1.850175
H      1.174126    0.281562   -2.342521
H      1.274986   -0.890103   -1.021052
H     -8.698653   -1.055215    1.915366
H     -1.039601   -0.541894   -1.605968
H     -0.841079    1.220065   -1.781338
H      5.853857   -0.177273   -2.193387
H     -0.339965    2.476681    0.186601
H     -0.703737    1.721332    1.832738
H     -1.664946   -0.398416    1.939027
H     -1.583514   -1.403433    0.498004
H      1.659661    1.812336    1.580243
H      1.693501    2.086383   -0.851478
