53

C     -4.775843   -0.820877    0.623258
C      1.774851    2.510350    2.535690
C     -1.918753    2.760376   -1.793742
C     -3.540442   -1.493277    1.182959
C     -2.483790   -1.714452    0.125051
C      0.308181    2.342390    0.630011
C      2.457668    1.110881    0.665533
C      3.741664   -0.694775   -0.304745
C      2.569281   -2.912835   -0.674282
C     -1.448271    0.519587    0.540474
C      1.045781   -1.241142   -1.748823
C      1.247327    1.540551    1.457767
C      3.761829   -2.072458   -0.789995
C     -2.034257   -0.405484   -0.494760
C     -0.737040    1.635363   -0.131420
C      2.641443   -0.399163    0.668467
C      1.380338   -1.990434   -0.502444
C     -0.372078   -1.322488   -2.164830
O      4.774516   -2.514289   -1.289459
O     -0.618613   -2.191569   -3.076826
O     -1.724562    2.603851   -0.448093
O      1.507298   -1.115796    0.529890
O     -1.334591   -0.566705   -1.653189
H     -4.913416   -1.010092   -0.446789
H     -5.700727   -1.149885    1.144575
H     -4.719988    0.295211    0.758144
H      2.216035    1.960120    3.373824
H      2.491020    3.210887    2.057673
H      0.938205    3.135897    2.908802
H     -0.948805    3.083015   -2.238379
H     -2.341208    1.902072   -2.319433
H     -2.609896    3.613242   -1.949918
H     -3.135979   -0.950602    2.062397
H     -3.848358   -2.496921    1.542852
H     -1.669796   -2.265278    0.600765
H     -2.930938   -2.319667   -0.674381
H      0.938954    2.912765   -0.114802
H     -0.169626    3.149229    1.246550
H      3.423089    1.509819    1.098414
H      2.404874    1.532297   -0.337575
H      3.732093    0.050056   -1.142034
H      4.720662   -0.505486    0.211616
H      2.638728   -3.565429    0.204713
H      2.363782   -3.510442   -1.600640
H     -2.312572    0.955225    1.118893
H     -0.881733   -0.054868    1.286344
H      1.730800   -1.659501   -2.550488
H      1.404740   -0.181054   -1.660206
H      0.810674    0.723349    2.042155
H     -3.018992    0.089828   -0.793512
H     -0.397543    1.271997   -1.136284
H      3.047776   -0.627781    1.700469
H      0.516207   -2.665605   -0.280236
