52

C      0.780021    0.355959   -0.980877
C     -5.230973   -1.732538    0.747997
C     -6.391873    2.454224   -0.171673
C     -6.165899    1.134594    0.154570
C      5.139755   -0.025042   -0.995321
C      3.943498   -0.703494   -0.820548
C      1.501131   -2.197400   -0.336747
C     -5.297162    3.155830   -0.663098
C      0.060321   -2.606087   -0.157143
C      4.858704    1.129916    1.049742
C     -0.459942   -0.612907    0.902503
C     -2.189453   -1.911756    0.006359
C      0.850839    0.007331    0.512135
C      5.612318    0.889684   -0.078465
C      1.902669   -1.101607    0.616669
C      3.187127   -0.477134    0.288962
C      3.672510    0.451370    1.214316
C     -4.908165    0.575666   -0.011417
C     -3.105395   -0.719113   -0.104902
C     -3.855288    1.318693   -0.503886
C      6.896052    2.756512   -1.028482
F      2.979027    0.730318    2.349492
F      6.181268    3.756507   -0.388170
F      6.347563    2.624826   -2.292854
F      8.207125    3.143542   -1.134794
N     -4.092945    2.607627   -0.818101
N     -2.786661    0.510335   -0.547298
N     -4.406403   -0.660434    0.218316
N     -0.843418   -1.475809   -0.229869
O      6.818610    1.530290   -0.321884
H      0.197464    1.302905   -1.131145
H      1.800529    0.476723   -1.407537
H      0.260410   -0.450793   -1.511948
H     -6.087724   -1.838427    0.054548
H     -4.685573   -2.679392    0.828390
H     -5.596587   -1.386644    1.748209
H     -7.349123    2.951693   -0.066507
H     -6.989933    0.553449    0.540206
H      5.720157   -0.228118   -1.891479
H      3.578459   -1.421319   -1.543707
H      2.119855   -3.085567   -0.093255
H      1.635060   -1.951893   -1.389513
H     -5.483528    4.204307   -0.920516
H     -0.090826   -3.174151    0.777885
H     -0.198185   -3.272137   -1.017174
H      5.203909    1.842261    1.787293
H     -0.251530   -1.329278    1.751167
H     -1.237323    0.091130    1.189533
H     -2.259267   -2.231005    1.074564
H     -2.514108   -2.730021   -0.659904
H      1.104442    0.904381    1.066888
H      1.918457   -1.458007    1.643262
