43

C     -2.483002    1.584109   -1.010624
C     -5.529208   -0.032392    0.550293
C      1.045832   -2.980919   -0.034482
C     -0.903589   -2.803913   -1.503100
C     -3.872825    1.294658   -0.581792
C      3.990666    2.425178    1.395651
C      4.993154    3.072683    0.713690
C      2.130839    0.876540    1.366405
C      2.555058    0.511448   -1.303616
C     -4.125747    0.225101    0.139260
C      3.160502    1.554685    0.714713
C      1.313720    0.020304    0.698341
C      3.390624    1.383142   -0.634903
C      1.533758   -0.163476   -0.665736
C      5.170197    2.858333   -0.631582
C      0.247592   -0.675245    1.397747
C     -0.732344   -1.444591    0.594896
C     -3.070945   -0.690378    0.531599
C     -0.008359   -2.038441   -0.576822
O      6.089392    3.441299   -1.296909
O      0.164327   -0.622821    2.639153
O     -3.358667   -1.714958    1.230389
O      4.362214    2.026849   -1.235627
O     -1.747768   -0.536033    0.199960
O      0.689367   -1.038455   -1.319477
H     -2.058948    0.820215   -1.676671
H     -1.796700    1.771316   -0.162515
H     -2.513120    2.549409   -1.595650
H     -6.024407   -0.630854   -0.258677
H     -5.598462   -0.590622    1.496385
H     -6.127262    0.896182    0.638990
H      1.726875   -3.351802   -0.836583
H      0.609492   -3.873985    0.439386
H      1.670655   -2.477519    0.734283
H     -1.240505   -3.713765   -0.964232
H     -1.729509   -2.201149   -1.901976
H     -0.275839   -3.154663   -2.353241
H     -4.710944    1.956952   -0.852364
H      3.810156    2.558415    2.449364
H      5.655686    3.760662    1.232044
H      2.008727    1.060142    2.427533
H      2.727609    0.370481   -2.361467
H     -1.138290   -2.282121    1.196337
