43

C      3.970443   -0.236724    1.089564
C      6.115111    1.117609    0.876786
C      0.350912   -2.157696   -0.304837
C      1.289387   -1.223193   -2.396088
C     -5.120502    0.713692    1.586225
C     -6.428373    0.461837    1.220426
C      4.084103    1.760477   -0.331891
C     -2.749060    0.566812    1.105522
C     -3.350853   -0.693002   -1.231051
C      4.671973    0.924136    0.494204
C     -4.079763    0.329331    0.768907
C     -1.725498    0.173263    0.272254
C     -4.397663   -0.309481   -0.414806
C     -2.026051   -0.467414   -0.916476
C     -6.666164   -0.184016    0.016531
C      2.691307    1.599533   -0.719987
C     -0.306549    0.413876    0.607361
C      0.624654    0.324133   -0.536632
C      0.358479   -0.970586   -1.248627
O     -7.868303   -0.395805   -0.282347
O      2.105714    2.381995   -1.505788
O      0.005539    0.665750    1.776771
O     -5.655794   -0.527916   -0.721510
O      1.952873    0.554546   -0.222896
O     -0.980406   -0.862241   -1.754062
H      3.666580   -0.938052    0.274004
H      4.644812   -0.820727    1.755454
H      3.107140    0.068197    1.736897
H      6.542971    0.178528    1.274350
H      6.214615    1.927840    1.630890
H      6.666996    1.470772   -0.037269
H      1.326143   -2.679621   -0.286847
H     -0.002713   -1.856329    0.692202
H     -0.388271   -2.899390   -0.687498
H      1.700368   -0.301471   -2.837210
H      2.104941   -1.892565   -2.009723
H      0.752403   -1.801442   -3.181261
H     -4.888866    1.221136    2.528280
H     -7.241829    0.760127    1.855211
H      4.689268    2.592349   -0.721296
H     -2.498197    1.060452    2.019804
H     -3.568602   -1.190566   -2.155582
H      0.306724    1.141847   -1.250964
