78

C      3.897704    3.303503    2.275571
C      4.050065    1.948043    1.606749
C      4.875819    1.084257    2.539260
C      5.077329   -0.273066    1.945189
C     -2.155042    0.917349   -1.893612
C     -3.219804    0.059449   -1.297130
C     -1.052548    1.167310   -0.876484
C     -3.876581    0.669966   -0.044724
C      0.031661    2.006234   -1.407061
C      3.799763   -1.024087    1.681036
C     -4.511306    1.946424   -0.419677
C      0.790049    1.654495   -2.603247
C      4.161447   -2.374736    1.085479
C     -5.189446    2.781953    0.574584
C      0.872831   -0.881851   -2.597395
C     -6.322532    1.141837    2.183580
C      1.591195    0.398773   -2.687902
C      2.997160   -3.211262    0.742310
C      1.595952   -2.149935   -2.681108
C      2.044054   -2.745131   -0.293226
C      2.598006   -2.581315   -1.685151
C     -6.381930    2.335016    1.308392
Cl     2.916978    0.579515   -1.501339
Cl     3.586049   -4.825597    0.216676
Cl     0.404982   -3.497771   -2.822649
Cl     0.731066   -3.977013   -0.373236
Cl    -6.950714    3.767013    2.283965
Cl    -7.684315    2.090878    0.059660
O     -7.436950   -1.727780    2.869246
O     -6.367862   -0.228127    4.652025
O     -8.791184   -0.352766    4.653121
O      4.229019   -4.415945   -3.034286
O      5.197699   -2.237294   -3.949460
O      6.200275   -3.083654   -1.921118
O     -7.642045    1.029631    2.767371
O      3.816523   -1.963828   -1.784186
S     -7.579486   -0.333891    3.768469
S      4.906664   -2.915901   -2.620556
H      4.838893    3.872264    2.108187
H      3.807420    3.120070    3.376720
H      2.997463    3.810085    1.914541
H      3.029673    1.531138    1.530832
H      4.496096    2.019764    0.606770
H      5.862770    1.626565    2.622643
H      4.473040    1.067578    3.559197
H      5.684501   -0.197850    1.014917
H      5.728289   -0.845122    2.667437
H     -1.744046    0.349477   -2.773642
H     -2.514252    1.858643   -2.305092
H     -2.856751   -0.951252   -1.097257
H     -4.045312   -0.019037   -2.053592
H     -0.824343    0.312162   -0.254810
H     -1.601571    1.859808   -0.112775
H     -4.537453   -0.137754    0.299551
H     -3.093093    0.772378    0.746621
H      0.728163    2.238506   -0.517469
H     -0.432611    3.054166   -1.550379
H      3.078568   -0.451730    1.137559
H      3.312929   -1.246433    2.693417
H     -3.721652    2.581585   -0.947733
H     -5.259803    1.690781   -1.253294
H      0.121933    1.643952   -3.520522
H      1.486802    2.538428   -2.845020
H      4.910334   -2.239647    0.305544
H      4.704746   -2.910148    1.920881
H     -5.524872    3.751059    0.037233
H     -4.418337    3.236015    1.307288
H      0.164572   -0.885642   -3.514509
H      0.135271   -0.842784   -1.766057
H     -6.186789    0.215837    1.593292
H     -5.593150    1.217858    3.009021
H      2.139757    0.490178   -3.690908
H      2.396034   -3.348731    1.683118
H      2.122788   -2.169715   -3.683923
H      1.596995   -1.777795    0.083318
H      2.821172   -3.677277   -1.995761
H     -8.305767   -2.075549    2.546059
H      4.811047   -5.162526   -2.692851
