36

C      4.927297   -0.998872   -0.369444
C      3.830856    0.135049    1.490410
C     -3.721516    0.041853    1.637575
C     -3.154227    1.052336   -1.288618
C     -3.779099   -0.228846   -0.783755
C     -1.729975    0.752020   -1.616788
C      2.813167    0.157928   -0.799318
C     -1.631522   -0.675075    0.435985
C      3.563157   -0.648848    0.230967
C     -3.110609   -0.730604    0.468382
C     -1.000855    0.422308   -0.333659
C      1.473970    0.579340   -0.382087
O      1.356432    1.581970    0.400355
O      0.299427   -0.021929   -0.766128
H      4.847623   -1.347577   -1.399759
H      5.497439   -1.680001    0.286096
H      5.483977   -0.015875   -0.409599
H      3.609977    1.206866    1.320449
H      4.907935    0.070476    1.807815
H      3.254745   -0.271592    2.371616
H     -3.958477    1.088299    1.292436
H     -4.720271   -0.375221    1.919064
H     -3.092539    0.019317    2.528070
H     -3.674818    1.287827   -2.247147
H     -3.287984    1.882674   -0.589104
H     -3.762252   -0.983705   -1.575827
H     -4.838842   -0.004405   -0.549044
H     -1.223332    1.587274   -2.135675
H     -1.702042   -0.176579   -2.236914
H      2.805596   -0.414140   -1.764205
H      3.461573    1.047465   -1.027234
H     -1.262812   -0.586321    1.499882
H     -1.216808   -1.651532    0.049011
H      3.054766   -1.620313    0.453390
H     -3.422394   -1.786107    0.610821
H     -0.897563    1.304537    0.334882
