54

C      3.544591    1.116293    0.168345
C      1.280506   -0.463627    1.909737
C     -3.525606    1.578563   -0.756141
C     -3.719568    0.957568    1.596801
C     -1.385298   -0.230189   -2.011003
C     -2.932926   -1.953329   -0.478695
C      2.775654   -0.906013   -1.243857
C      0.259387    1.673089    1.209236
C      1.374542   -1.252296   -0.962560
C     -1.035675    1.792712    0.373558
C     -3.781683   -0.819645   -0.128368
C     -1.465053   -1.844484   -0.175771
C      4.677648   -1.042606    0.168986
C      3.661947   -0.309920   -0.261863
C      0.725566    0.278653    0.939673
C      0.479284   -0.245372   -0.425433
C     -1.690108    0.465775    0.386670
C      5.693917   -0.533683    1.047430
C     -3.178053    0.467130    0.242834
C     -1.007854   -0.487781   -0.592711
O      6.644450   -1.285584    1.418107
O      5.720566    0.757997    1.541494
H      3.454938    1.202522    1.246264
H      2.751032    1.620238   -0.429526
H      4.508515    1.648009   -0.132190
H      1.626660   -1.469110    1.751662
H      1.391391   -0.046032    2.900006
H     -4.023131    2.429195   -0.292083
H     -4.244002    1.184212   -1.533420
H     -2.649064    1.942814   -1.295028
H     -3.918238    2.034568    1.587801
H     -4.645228    0.366978    1.819058
H     -3.000361    0.697120    2.412719
H     -0.885159    0.705608   -2.349797
H     -0.923987   -1.043516   -2.621441
H     -2.458121   -0.264160   -2.215099
H     -3.273123   -2.908314    0.024069
H     -3.000341   -2.210355   -1.578437
H      2.815942   -0.166583   -2.144486
H      3.301605   -1.801072   -1.759955
H     -0.002984    1.793068    2.288972
H      0.973426    2.440139    0.881785
H      0.925175   -1.600977   -1.967856
H      1.327994   -2.240424   -0.390241
H     -1.707794    2.523404    0.876059
H     -0.700833    2.148769   -0.620852
H     -4.490798   -1.141199    0.693641
H     -4.490168   -0.626738   -0.991769
H     -0.947425   -2.638857   -0.740484
H     -1.306167   -2.039075    0.897894
H      4.752022   -2.084151   -0.154919
H      0.639285    0.691396   -1.089556
H     -1.481405    0.006051    1.400270
H      6.564110    1.133222    1.922894
