28

C     -1.549754   -0.964894   -1.308093
C     -3.159303    0.350493    1.499243
C      3.781552   -0.287044   -0.286814
C      2.941026   -1.174389    0.386789
C      3.301162    0.870839   -0.843256
C      1.587300   -0.804980    0.454779
C      1.975708    1.165033   -0.731828
C     -1.392186   -0.216073   -0.052617
C      1.082150    0.328707   -0.077942
C     -0.296382    0.762381    0.057706
Cl    -0.412216    1.486235    1.707495
N     -2.626910    0.568378    0.182954
Cl     0.690468    0.000000    0.000000
H     -2.635442   -1.304594   -1.432711
H     -0.927736   -1.901277   -1.390280
H     -1.372747   -0.305607   -2.196750
H     -3.417409    1.344144    1.914025
H     -2.373297   -0.113059    2.164589
H     -4.004428   -0.329304    1.459141
H      4.840495   -0.526494   -0.346867
H      3.318306   -2.073723    0.813863
H      4.020923    1.509810   -1.354953
H      0.935304   -1.521715    0.979930
H      1.584316    2.091296   -1.162245
H     -1.378556   -0.985655    0.792160
H     -0.511062    1.643473   -0.641989
H     -3.310814    0.388020   -0.586327
H     -0.690468    0.000000    0.000000
