68

C     -8.220421    2.406545    0.562544
C      0.018535   -4.260379   -1.873139
C      1.775564    1.198506   -1.077272
C     -6.852444    2.227486   -0.128534
C     -6.593258    0.810132   -0.478885
C     -6.533426   -0.154536    0.673520
C      7.448458    1.497143    0.634353
C     -5.476221    0.069738    1.685792
C      6.228883    1.036726   -0.151280
C      1.835480   -2.730990   -0.901027
C      1.763087   -1.984962    0.433152
C      8.548903    0.506008    0.377183
C     -0.448286   -2.008934   -1.143221
C     -3.523156    0.888436    0.356481
C     -3.315377   -1.207791    1.422390
C      3.193122    0.582946    0.787913
C      0.426231   -2.934986   -1.294522
C      1.964459    0.367730   -0.068148
C     -4.084865   -0.098803    1.144461
C      0.985757   -0.727316    0.329636
C     -0.175803   -0.615517   -0.561638
C     -2.250605    0.748573   -0.126315
C     -2.009259   -1.355751    0.934628
C      5.081267    1.934376   -0.026885
C     -1.475845   -0.330451    0.131440
N      8.921573    0.439692   -1.018049
N      3.896700    1.760477    0.337466
O     -1.666033    1.750482   -0.934260
O     -1.296944   -2.496089    1.253887
O      5.349048    3.306165   -0.403518
H     -8.139927    2.217639    1.644075
H     -8.916701    1.653177    0.141521
H     -8.638413    3.418769    0.373056
H     -0.931025   -4.601024   -1.394598
H      0.765270   -5.053299   -1.697424
H     -0.270855   -4.123775   -2.946185
H      1.001163    1.258602   -1.807890
H      2.574066    1.980664   -1.187766
H     -6.878773    2.850318   -1.031050
H     -6.102626    2.707490    0.540994
H     -7.467865    0.491869   -1.135561
H     -5.698678    0.662883   -1.124627
H     -6.452179   -1.231356    0.314868
H     -7.509264   -0.132409    1.192290
H      7.801163    2.465771    0.184110
H      7.221472    1.615698    1.689536
H     -5.577770   -0.807220    2.411653
H     -5.556419    0.949007    2.327304
H      5.976248   -0.010400    0.118165
H      6.601247    0.997270   -1.217020
H      2.370769   -3.675053   -0.645269
H      2.458958   -2.210316   -1.643136
H      2.815694   -1.817111    0.781720
H      1.323716   -2.676438    1.174466
H      9.448380    0.788558    0.983717
H      8.260247   -0.500725    0.718808
H     -1.502273   -2.231737   -1.479034
H     -4.052753    1.788985    0.115439
H     -3.780633   -1.972390    2.046282
H      3.909940   -0.250848    0.685002
H      2.858507    0.801646    1.836892
H      0.684709   -0.514245    1.427797
H     -0.118205    0.036654   -1.395541
H      8.249250   -0.172496   -1.512621
H      9.022891    1.387240   -1.471750
H     -2.204607    2.579059   -1.149289
H     -1.630787   -3.261008    1.768794
H      4.570936    3.965894   -0.385102
