28

C      1.198529   -0.211063    1.130390
C      3.491930    1.164002    0.110697
C     -3.711713   -0.584691    0.000117
C     -2.940983   -1.719506   -0.142715
C     -3.139694    0.660859   -0.262053
C     -1.622112   -1.638131   -0.538472
C     -1.800538    0.726041   -0.662567
C      1.206369    0.475622   -0.231584
C     -1.040498   -0.415526   -0.801762
C      0.367672   -0.297712   -1.226624
Cl     0.537008    0.491277   -2.812476
N      2.566162    0.447900   -0.705013
Cl     0.688470    0.000000    0.000000
H      1.553190    0.491187    1.906470
H      0.204630   -0.612796    1.390783
H      1.894766   -1.071616    1.120092
H      4.294107    0.445581    0.450691
H      4.002017    1.940156   -0.496405
H      3.064290    1.587842    1.028877
H     -4.739149   -0.666078    0.309820
H     -3.417649   -2.670103    0.069254
H     -3.740637    1.538741   -0.150168
H     -1.071997   -2.575441   -0.631111
H     -1.424325    1.724188   -0.848050
H      0.807110    1.491686   -0.077940
H      0.799636   -1.335250   -1.277860
H      2.661878    0.612832   -1.720612
H     -0.688470    0.000000    0.000000
