68

C     -9.113227    2.402402    0.486353
C      0.297115   -3.958815    1.721367
C      3.062530   -2.569464   -0.993606
C     -7.690655    1.887482    0.652225
C     -7.294148    1.222893   -0.631440
C     -5.906840    0.687905   -0.561731
C      6.524411    2.064195    0.488114
C     -4.859981    1.748065   -0.308764
C      5.930614    1.307332   -0.661138
C      0.076255   -3.349841   -0.773578
C      0.539678   -2.386958   -1.800462
C      7.920731    1.642024    0.771493
C      0.444605   -1.674448    0.965355
C     -2.923424    0.724230    0.919911
C     -2.745442    0.996361   -1.392150
C      3.490792   -0.237668   -0.587522
C      0.273241   -2.944233    0.625126
C      2.551437   -1.378567   -0.954751
C     -3.487840    1.148953   -0.254263
C      1.132187   -1.106294   -1.302129
C      0.434889   -0.583616   -0.071864
C     -1.656228    0.161768    0.965117
C     -1.471879    0.429014   -1.332126
C      5.872086   -0.121003   -0.406339
C     -0.874315   -0.007543   -0.187741
N      8.395417    2.499250    1.888519
N      4.784587   -0.780391   -0.377820
O     -1.174252   -0.234531    2.202141
O     -0.816669    0.328217   -2.522799
O      7.026286   -0.902025   -0.172154
H     -9.271522    3.252941    1.191164
H     -9.194894    2.812460   -0.558147
H     -9.851950    1.618595    0.666912
H     -0.758521   -4.315060    1.855591
H      0.608104   -3.515975    2.684144
H      0.901458   -4.842236    1.457719
H      4.144967   -2.697504   -0.761814
H      2.571385   -3.496124   -1.216446
H     -7.039662    2.702034    0.967165
H     -7.710125    1.138287    1.493755
H     -7.983262    0.344899   -0.789214
H     -7.404778    1.892026   -1.502499
H     -5.843755   -0.108567    0.236760
H     -5.654556    0.134212   -1.510713
H      6.429129    3.162593    0.322370
H      5.908297    1.790117    1.392776
H     -4.945662    2.522802   -1.092884
H     -5.111001    2.175642    0.706506
H      6.534867    1.471029   -1.606404
H      4.883505    1.689420   -0.832142
H     -1.051504   -3.468139   -0.886386
H      0.418004   -4.418322   -0.947032
H      1.293253   -2.899393   -2.458662
H     -0.312137   -2.240393   -2.516950
H      8.562272    1.787064   -0.105612
H      8.028757    0.590484    1.094664
H      0.617828   -1.429594    1.983050
H     -3.505542    0.840378    1.836101
H     -3.173363    1.327012   -2.336819
H      3.426494    0.525042   -1.400413
H      3.066770    0.197479    0.338530
H      1.203876   -0.397057   -2.137851
H      1.091168    0.211258    0.348752
H      7.573895    2.682855    2.480235
H      8.678214    3.380930    1.406085
H     -1.713878   -0.126505    3.044369
H     -1.137903    0.605639   -3.423226
H      6.979814   -1.915025   -0.298579
