52

C      5.026226    0.072138   -1.420838
C      4.731879    1.387060   -0.763311
C      5.038423   -0.991706   -0.626172
C     -2.646451   -2.633791   -1.198148
C     -3.874840   -2.341745   -2.009820
C     -1.595049    1.950339    1.717645
C      2.267393    1.004281   -0.723755
C      2.265826   -0.680965    0.850872
C     -4.501865    0.070655   -0.444578
C      3.525999    1.254762    0.108898
C     -2.859135   -1.247022   -1.691691
C     -2.581507    1.319877    0.991593
C      3.573879    0.090797    1.051350
C     -4.889576    0.997390    0.488568
C     -0.284655    1.617844    1.468312
C      4.764640   -0.786883    0.814567
C     -0.930000    0.058912   -0.196089
C     -2.267735    0.361917    0.020654
C      0.074027    0.675976    0.517344
C     -3.891512    1.621774    1.209186
C     -6.285457    1.335614    0.737594
F      0.747457    2.204330    2.152078
F     -0.575998   -0.865754   -1.129571
N      4.596712   -2.055695    1.488716
N      1.428525    0.333118    0.260479
N     -3.228976   -0.259733   -0.694435
O     -4.219892    2.478813    2.074355
O     -6.602141    2.189421    1.600253
O     -7.302643    0.721865    0.026656
Cl     0.684241    0.000000    0.000000
H      5.220152   -0.011775   -2.491156
H      5.588535    1.664225   -0.123647
H      4.530050    2.172363   -1.511152
H      5.245292   -1.990197   -1.027759
H     -2.830300   -2.825449   -0.134443
H     -1.817707   -3.210845   -1.627545
H     -4.844476   -2.343978   -1.511166
H     -3.871063   -2.795202   -3.016645
H     -1.859612    2.683294    2.458737
H      2.487466    0.318766   -1.575421
H      1.820555    1.924616   -1.100125
H      2.440867   -1.484633    0.083644
H      1.869588   -1.077147    1.787943
H     -5.283997   -0.416825   -1.007428
H      3.364682    2.205285    0.660607
H     -2.338497   -0.881993   -2.599557
H      3.636143    0.447659    2.116039
H      5.643033   -0.287564    1.275673
H      5.513666   -2.371506    1.871077
H      4.183590   -2.792381    0.887175
H     -8.201523    1.189699   -0.168520
H     -0.684241    0.000000    0.000000
