52

C      5.529987    1.061291    1.611768
C      5.241816    0.362228    0.363597
C      4.598274    1.323078    2.500452
C     -3.048153   -2.378165    1.463722
C     -4.393813   -1.747651    1.509694
C     -0.774805    0.714760   -2.599295
C      2.992494   -0.090714   -0.635602
C      1.881116   -0.892058    1.256384
C     -4.296369   -0.105859   -0.757373
C      4.025878   -0.511546    0.365840
C     -3.154049   -0.926458    1.192139
C     -1.984132    0.438227   -1.981524
C      3.276037   -0.498124    1.659530
C     -4.337617    0.434764   -2.030376
C      0.417989    0.465313   -1.979488
C      3.208421    0.899619    2.236831
C     -0.730583   -0.356147   -0.077515
C     -1.939416   -0.097097   -0.720617
C      0.476148   -0.079263   -0.695758
C     -3.148838    0.716770   -2.665260
C     -5.586886    0.713798   -2.717047
F      1.580558    0.743428   -2.607428
F     -0.822952   -0.883220    1.156903
N      2.559587    1.743205    1.245221
N      1.702567   -0.342661   -0.049894
N     -3.138482   -0.362967   -0.124732
O     -3.109969    1.209095   -3.822959
O     -5.546662    1.204087   -3.869536
O     -6.818502    0.465853   -2.163511
Cl     0.688305    0.000000    0.000000
H      6.581534    1.365847    1.778407
H      6.150136   -0.228749    0.058301
H      5.104988    1.085244   -0.494908
H      4.853978    1.841648    3.409347
H     -2.537051   -2.655344    2.414097
H     -2.770965   -3.038714    0.626701
H     -5.077164   -2.075767    0.725445
H     -4.857626   -1.645499    2.516580
H     -0.804085    1.137477   -3.595080
H      3.121533    0.968789   -0.943916
H      3.053634   -0.693594   -1.573941
H      1.207386   -0.434211    2.018221
H      1.741923   -2.000341    1.275273
H     -5.235742   -0.321424   -0.266869
H      4.335352   -1.547726    0.143672
H     -2.915721   -0.177846    2.000598
H      3.665049   -1.236535    2.388423
H      2.653730    0.873127    3.189243
H      3.130710    2.615219    1.176567
H      1.627568    2.053870    1.648552
H     -7.688810    0.890942   -2.453737
H     -0.688305    0.000000    0.000000
