54

C      3.091063    2.931155    1.322303
C      0.387043   -3.726079    0.908427
C     -3.146472   -0.589740   -2.028193
C     -2.610292    1.548712   -1.048584
C     -0.388956   -2.471120   -1.555944
C      0.228643    0.697639   -2.765362
C      1.986524    0.748947    0.753624
C     -1.292402   -2.053883    1.368022
C      1.133854   -0.399275    1.195404
C     -1.955900   -1.119050    0.401882
C     -1.251941    0.648395   -2.860113
C      0.877725   -0.492089   -2.105709
C      1.756057    1.846845    2.990266
C      2.218968    1.806609    1.749357
C      0.041920   -2.502306    0.855484
C      0.928559   -1.456176    0.196821
C     -1.109601   -0.382537   -0.553205
C      2.074555    2.922425    3.900754
C     -1.945270    0.271014   -1.608401
C      0.113759   -1.114404   -1.023227
O      2.798240    3.916921    3.650023
O      1.543755    2.895957    5.201593
H      4.024168    3.021511    1.914558
H      2.505465    3.871241    1.373870
H      3.414492    2.820519    0.261947
H     -0.025559   -4.602712    1.238382
H      1.454415   -3.954885    0.470835
H     -3.971907   -0.542981   -1.302106
H     -3.543424   -0.081358   -2.958742
H     -2.849245   -1.574771   -2.350033
H     -1.768397    2.235573   -0.777945
H     -3.298397    1.979280   -1.779587
H     -3.111643    1.280326   -0.093014
H      0.394649   -3.230452   -1.528490
H     -1.255118   -2.829339   -1.004660
H     -0.686028   -2.385778   -2.638143
H      0.545964    1.637118   -2.268855
H      0.590871    0.809795   -3.839925
H      1.556510    1.300315   -0.134394
H      2.990595    0.311103    0.519905
H     -1.129631   -1.607690    2.350415
H     -1.898387   -2.976853    1.509269
H      0.258420    0.002452    1.720400
H      1.731887   -0.871343    2.042339
H     -2.792144   -1.699946   -0.089659
H     -2.524842   -0.355990    1.006790
H     -1.573916    1.700774   -3.131356
H     -1.580414    0.059151   -3.750792
H      0.996153   -1.233845   -2.961749
H      1.926968   -0.197915   -1.895337
H      1.113234    1.016366    3.295408
H      1.861683   -1.919632   -0.078423
H     -0.695211    0.510019    0.033793
H      1.858956    3.581986    5.900078
