61

C      6.192214    0.387852    1.039838
C     -6.766198   -1.906490    0.519175
C     -0.190483    4.299879    0.481027
C     -3.514064    0.637734   -1.704435
C      6.450144    0.134180   -0.412666
C     -5.644995   -1.748978    1.540565
C      5.257890   -0.548903   -1.034731
C      5.043197   -1.864607   -0.300143
C      3.884911   -2.624673   -0.875084
C     -2.206049    2.688270    0.854141
C     -2.110258    1.261167    1.419260
C     -0.242426    1.978670   -0.343508
C      2.363732   -0.932273   -1.750274
C      1.816021   -1.904211    0.339170
C     -4.559970   -0.076763    0.326951
C     -0.840877    2.959149    0.293813
C     -3.329389    0.319633   -0.460768
C      2.657999   -1.802285   -0.739115
C     -1.991903    0.278330    0.245823
C     -0.838673    0.608043   -0.566372
C      1.200405   -0.167024   -1.651350
C      0.645100   -1.155704    0.473512
C      0.353353   -0.289490   -0.536567
N     -4.393614   -1.427038    0.846911
O      0.963532    0.690475   -2.708766
O     -0.169681   -1.277668    1.560320
H      5.147016    0.723526    1.243717
H      6.910087    1.183139    1.405284
H      6.397437   -0.542148    1.611610
H     -6.344489   -1.883860   -0.515024
H     -7.544321   -1.142633    0.651361
H     -7.237182   -2.910445    0.642828
H     -0.354831    4.697685    1.487970
H     -0.581254    4.963899   -0.304296
H      0.897966    4.150453    0.265969
H     -4.524862    0.619963   -2.170338
H     -2.748525    0.943309   -2.376987
H      6.657972    1.082859   -0.967878
H      7.354684   -0.515628   -0.502738
H     -5.938797   -0.917214    2.206519
H     -5.579144   -2.666612    2.128618
H      4.378485    0.127093   -0.888041
H      5.438873   -0.674346   -2.101308
H      5.938571   -2.507445   -0.383003
H      4.903091   -1.616425    0.765863
H      4.058428   -2.800725   -1.965162
H      3.773013   -3.630854   -0.427045
H     -2.351896    3.354691    1.698261
H     -2.984069    2.758547    0.092278
H     -1.161662    1.227609    1.987860
H     -2.923472    1.024743    2.102794
H      0.778705    2.192530   -0.728423
H      3.000248   -0.809308   -2.625665
H      2.018315   -2.580728    1.158578
H     -4.688787    0.580017    1.210726
H     -5.428623   -0.072323   -0.325464
H     -2.037363   -0.726029    0.731758
H     -1.142588    0.593795   -1.629255
H     -4.270285   -2.146069    0.113403
H      0.204447    1.276624   -2.791667
H     -0.045110   -1.874968    2.340173
