55

C     -3.307140    1.488583    2.044435
C      2.190313    2.826903    0.257193
C     -0.114434   -3.038316    2.061728
C     -3.506329   -1.997807   -2.184759
C      5.067858    1.183605   -2.413734
C     -1.990797    2.013251    1.517952
C      1.529385    1.730309    1.104344
C      1.037786   -2.427505    1.332221
C      3.020796   -1.437982   -0.572720
C     -0.434988    1.805136   -0.442531
C     -3.345871   -1.085208   -0.960414
C     -1.732190    1.350787    0.183916
C      1.854562   -0.871928   -0.385362
C      4.077625   -0.736656   -1.250397
C     -1.504332   -0.096244    0.436967
C     -1.863823   -0.902555   -0.761866
C     -0.043357   -0.223259    0.802245
C      0.624090    0.976038    0.179323
C      0.640446   -1.428949    0.288682
O     -4.019604    0.083409   -1.254054
O      5.182740   -1.315493   -1.410148
O      3.969677    0.546518   -1.747884
O      1.519475    0.403670   -0.797079
O     -1.315962   -2.196434   -0.496504
O     -0.050068   -2.098035   -0.714921
H     -3.815664    0.779310    1.379029
H     -3.196816    0.953016    3.026995
H     -4.015169    2.327945    2.213026
H      2.264080    2.473394   -0.778949
H      1.585247    3.751265    0.261976
H      3.202638    3.063161    0.614371
H     -1.063930   -2.496046    1.939245
H      0.107477   -3.165181    3.143224
H     -0.292623   -4.081340    1.673585
H     -2.781986   -1.619335   -2.939146
H     -4.539899   -2.006158   -2.548105
H     -3.149338   -3.004747   -1.864276
H      6.006079    0.983546   -1.840695
H      4.902165    2.277996   -2.370880
H      5.204901    0.802844   -3.438590
H     -2.056180    3.121444    1.416790
H     -1.238934    1.767331    2.284321
H      2.349012    1.051171    1.406714
H      1.066082    2.242180    1.938239
H      1.643129   -3.233688    0.867930
H      1.710338   -1.928254    2.064321
H      3.177821   -2.448489   -0.207308
H     -0.529151    1.652702   -1.541084
H     -0.337792    2.892059   -0.288072
H     -3.770048   -1.600329   -0.072069
H     -2.549648    1.617234   -0.476295
H     -2.172794   -0.414123    1.262644
H     -1.374640   -0.495887   -1.645391
H      0.104760   -0.112119    1.915329
H     -3.924976    0.297263   -2.213512
