48

C     -1.517143    1.610511    2.064559
C      6.088995   -3.003424   -0.068573
C      4.959229    2.445884   -0.602822
C     -6.225586   -0.244059    1.764738
C     -5.381973    0.097895    2.804581
C     -5.751494   -0.187148    0.450219
C     -4.073085    0.496171    2.561001
C      0.472039    0.042784   -1.388960
C      2.124701   -1.749986   -0.950531
C     -3.891437    0.291355   -1.123729
C     -0.218754    0.255939   -0.060133
C     -2.458927   -0.247317   -1.043182
C      3.429599   -2.152337   -0.660742
C      2.888688    0.510419   -0.919761
C      1.861251   -0.422225   -1.078405
C     -4.451826    0.211136    0.247904
C     -1.640558    0.732417   -0.266982
C     -3.602169    0.554449    1.279894
C      4.444921   -1.232706   -0.503852
C      4.178696    0.113914   -0.633336
N     -2.252084    0.964724    1.021708
O      5.758835   -1.646474   -0.211604
O      5.142552    1.071653   -0.489072
H     -1.050339    0.905225    2.789270
H     -0.732641    2.289531    1.632045
H     -2.233074    2.300168    2.594396
H      5.617086   -3.562353   -0.904179
H      7.201391   -3.100115   -0.116444
H      5.670561   -3.364929    0.884146
H      4.959743    2.717284   -1.684551
H      3.967456    2.801424   -0.206364
H      5.713275    3.043964   -0.053249
H     -7.247367   -0.557134    1.924267
H     -5.770061    0.046353    3.811031
H     -6.420219   -0.457203   -0.360092
H     -3.407365    0.766128    3.383264
H     -0.059566   -0.690363   -2.028477
H      0.580210    1.004533   -1.929465
H      1.372121   -2.499831   -1.063015
H     -4.482380   -0.270173   -1.865367
H     -3.770516    1.374848   -1.414305
H      0.373658    1.015531    0.485629
H     -0.198450   -0.726195    0.463121
H     -2.066597   -0.369713   -2.080092
H     -2.510880   -1.211664   -0.513778
H      3.638617   -3.207551   -0.559135
H      2.594784    1.544987   -1.037682
H     -1.623916    1.693673   -0.798486
