43

C      2.730019   -2.133869   -0.359405
C      1.198345   -2.194965   -0.289176
C     -3.515998    1.186764    1.297515
C     -3.589747   -0.788682   -0.158677
C     -4.748564    1.702882    0.589321
C     -4.998765   -0.684341    0.356090
C      2.185377    0.102360   -1.071494
C     -2.733933    0.393434    0.248664
C      3.359806   -0.953807   -1.003519
C      0.720641   -0.930446    0.589579
C     -0.532749   -0.446089    0.021914
C      3.088231    0.205579    0.953706
N     -5.571120    0.614226    0.173931
N     -1.517461   -0.079202    0.798123
N      1.896712   -0.206641    0.359598
N      4.152843   -0.201998    0.010185
O     -0.773003   -0.337891   -1.348575
O      3.265723    0.784222    2.032421
O      4.717155    2.698217   -0.503567
O      7.145187    1.948711   -0.228239
O      5.677519    2.003179    1.783234
O      5.431960    0.069446    0.109696
S      5.754574    1.703327    0.323651
H      3.040130   -2.215894    0.725159
H      3.033057   -3.107618   -0.809680
H      0.923820   -3.088312    0.236361
H      0.710597   -2.120266   -1.257711
H     -2.874364    2.042689    1.649251
H     -3.776025    0.555895    2.151700
H     -3.567694   -0.820094   -1.272375
H     -3.174266   -1.743543    0.275803
H     -5.305463    2.435236    1.250209
H     -4.401973    2.227250   -0.327114
H     -4.991924   -1.019358    1.412837
H     -5.611710   -1.432835   -0.197244
H      2.584200    1.090199   -1.183311
H      1.444514   -0.246056   -1.757789
H     -2.584506    1.112567   -0.582364
H      3.846860   -1.061969   -1.945009
H      0.550533   -1.308162    1.603839
H     -6.006303    0.735404   -0.754927
H     -1.146246    0.491677   -1.770637
H      3.964015    3.018776    0.047377
