178

C     -8.349491    4.158943    1.477792
C      6.348996   -1.684775    1.102137
C      5.292337   -3.814490    0.570040
C     -1.564453    2.635682    1.177588
C     -4.512509    2.239877   -0.292461
C      0.788837   -1.703093   -0.490244
C      1.006682    1.969881   -1.348569
C      2.230397    0.782084    0.968240
C      0.917047    1.323449    1.391811
C     -2.001696    1.327572   -1.501787
C     -3.371350    0.812828    2.489045
C     -1.973464    0.473030    2.131780
C     -0.801796    0.499593   -1.910409
C      5.828430   -2.293970   -1.288195
C      1.842009   -0.608103   -2.395087
C      4.794806   -1.704530   -2.211525
C      3.150522    0.012660   -2.715135
C      3.997270   -1.787287    0.259227
C      9.915478   -1.836372    2.661698
C    -11.576520   -3.799313    0.295400
C     -6.874620   -1.565470    3.931617
C      9.955669    2.767992    0.408439
C     -4.603976   -0.077771   -0.985362
C     -8.708274    3.598208    0.125538
C      2.454553    0.024815   -0.094795
C      3.871129   -0.420880   -0.350454
C    -11.643537   -4.201678   -1.180735
C     -8.207367   -2.014916    3.371432
C     10.979074   -0.778174    2.480082
C      9.315141    2.647581   -0.984270
C     -2.494561    0.739077   -0.199619
C     -0.152651    0.711460    0.521154
C     -4.340659    0.384992    1.378587
C    -10.209549    3.520537    0.006350
C    -10.264399   -3.877524   -1.778345
C     11.570347   -0.944612    1.094002
C     10.405436    2.038345   -1.874961
C    -10.504017    2.392689   -0.962037
C     12.819544   -0.063782    0.993209
C      9.801466    1.795537   -3.216201
C     -9.824828   -2.597809   -1.051435
C     12.609199    1.172691    1.850447
C    -10.034010    1.069467   -0.384648
C      8.557242    0.933680   -3.129363
C     -8.218602   -1.769441    1.865383
C     -7.771511   -0.342014    1.656693
C     11.123952    1.478319    1.954498
C     -9.397820   -3.018123    0.331076
C     -8.775600    1.287455    0.392809
C      7.650273    1.416202   -2.009667
C     -6.356758   -0.282027    2.151685
C      5.338342    0.664587   -2.047718
C      5.395511   -2.347714    0.137677
C     -1.536539    1.190042    0.837565
C     -3.937704    0.886151    0.031474
C      1.352571   -0.383007   -1.006611
C      0.290553    0.722584   -0.886915
C      4.286154   -0.345433   -1.770435
O     10.489693   -3.082524    2.381302
O     -4.164331   -1.361604   -0.788912
O    -12.558046   -3.372017   -1.794637
O     -9.204063   -1.299919    3.994461
O    -10.659064    4.716514   -0.545294
O    -10.316020   -3.712101   -3.139350
O     11.997956   -2.262346    0.965019
O     11.511752    2.844010   -1.954818
O    -11.829515    2.274619   -1.298895
O     13.021887    0.233361   -0.334227
O     10.721482    1.110693   -4.033011
O     -8.768556   -2.022130   -1.764196
O     13.050709    0.940897    3.150926
O    -11.031844    0.513452    0.430902
O      7.918857    1.011670   -4.359378
O      5.083977    1.793519   -2.581500
O    -10.260603   -4.012728    0.770057
O     -6.501313   -0.296138    3.591312
O     10.511215    1.528955    0.729340
O     -8.068555    2.400787   -0.066386
O     10.539883    0.505227    2.728347
O      8.326972    1.687258   -0.859564
O     -5.621308    0.813419    1.792391
O     -9.416898   -1.980928    1.265491
O     -7.981109    0.148643    0.392397
O      6.663064    0.442602   -1.742726
H     -7.366586    4.695979    1.346308
H     -8.260519    3.392678    2.256489
H     -9.070722    4.944278    1.817084
H      7.159625   -1.125908    0.590973
H      5.761071   -0.963098    1.717644
H      6.796407   -2.404283    1.827784
H      6.135524   -4.375437    0.168939
H      4.328173   -4.221845    0.265236
H      5.351425   -3.886500    1.691014
H     -2.544219    2.986682    1.564444
H     -0.868298    2.775339    2.058501
H     -1.257524    3.348455    0.426381
H     -5.449988    2.178116   -0.887016
H     -3.827781    2.883578   -0.871847
H     -4.822031    2.696631    0.681710
H      1.123758   -1.934914    0.539677
H     -0.317073   -1.767309   -0.598010
H      1.163929   -2.538613   -1.127818
H      0.509225    2.915367   -1.072876
H      0.989263    1.994247   -2.483193
H      2.044487    2.061441   -1.038255
H      3.081963    1.048192    1.615644
H      0.773038    1.019922    2.450055
H      0.981174    2.422499    1.283308
H     -2.706391    1.327350   -2.320907
H     -1.644092    2.374328   -1.314463
H     -3.639025    0.136316    3.356855
H     -3.565671    1.818618    2.856488
H     -1.920815   -0.614044    1.916658
H     -1.296668    0.798312    2.929831
H     -1.134469   -0.537975   -1.984537
H     -0.484514    0.920230   -2.901846
H      5.992857   -3.346718   -1.682748
H      6.842135   -1.829905   -1.416399
H      1.963468   -1.717474   -2.594457
H      1.128869   -0.282162   -3.189578
H      3.935313   -2.397784   -2.247390
H      5.228022   -1.670363   -3.230792
H      3.460550   -0.423038   -3.716638
H      3.167937    1.086992   -2.877725
H      3.325274   -2.547175   -0.154122
H      3.810974   -1.670965    1.352085
H      9.555241   -1.875845    3.708629
H      9.092443   -1.720216    1.928916
H    -11.873860   -2.753756    0.369022
H    -12.288452   -4.437018    0.848373
H     -6.125332   -2.344905    3.622126
H     -6.915816   -1.629344    5.045018
H      9.194464    2.992954    1.181534
H     10.675536    3.584516    0.374657
H     -5.683694    0.089716   -0.886733
H     -4.375619    0.263958   -2.040306
H     -8.351683    4.284201   -0.678461
H      4.558444    0.246444    0.231440
H    -11.879985   -5.267425   -1.305972
H     -8.261425   -3.111271    3.525055
H     11.780579   -1.015967    3.208052
H      8.972104    3.609342   -1.359179
H     -2.318298   -0.380600   -0.288845
H     -0.151678   -0.377191    0.851301
H     -4.269939   -0.723310    1.384476
H    -10.711790    3.298783    0.975993
H     -9.583243   -4.673429   -1.426224
H     10.855545   -0.739052    0.287023
H     10.624464    1.042048   -1.403220
H     -9.914473    2.562503   -1.894829
H     13.658087   -0.648551    1.391953
H      9.512357    2.755244   -3.689292
H    -10.644046   -1.853951   -1.026132
H     13.197902    1.985823    1.428652
H     -9.873638    0.400169   -1.227655
H      8.868317   -0.094342   -2.949284
H     -7.398588   -2.429629    1.482109
H     -8.361005    0.291553    2.404835
H     11.019853    2.464384    2.458117
H     -8.375882   -3.484975    0.276708
H     -9.050146    1.528711    1.449369
H      7.155899    2.332571   -2.410616
H     -5.864838   -1.258148    1.974017
H     10.098336   -3.526261    1.599098
H     -4.403845   -1.907036   -1.565047
H    -13.361946   -3.907780   -2.012598
H     -9.676933   -1.838936    4.703551
H    -10.148780    5.487979   -0.163733
H    -11.236925   -4.004598   -3.432601
H     12.960156   -2.385345    1.121917
H     12.124476    2.448088   -2.621619
H    -11.882470    1.950816   -2.253397
H     13.988550    0.352434   -0.512820
H     10.703278    0.153767   -3.732264
H     -9.103249   -1.489275   -2.522726
H     13.553542    1.703276    3.484047
H    -11.572721    1.250111    0.857214
H      7.295727    0.249834   -4.490461
