15

C      0.532499    0.965972   -0.083225
C      1.817151    0.840212    0.162952
C      0.005208   -0.316115   -0.535252
C      2.208728   -0.527202   -0.111769
C     -1.166498   -0.809472    0.282515
C     -2.238628    0.212544    0.170438
F     -0.854061   -1.026379    1.589584
O      3.362697   -1.051640    0.001084
O     -2.805058    0.344560   -0.943613
O     -2.637117    1.016914    1.226476
O      1.084632   -1.193870   -0.531579
H      0.025650    1.925828    0.059189
H      2.528737    1.591381    0.515317
H     -0.355077   -0.215567   -1.589668
H     -1.508863   -1.757165   -0.212450
