52

C      6.690669    0.312622   -1.545750
C      6.370582   -0.417250   -0.244147
C      6.179754    0.537847    0.838070
C     -7.990031   -0.028184   -0.527329
C      5.079214    0.654591    1.514095
C     -7.037572   -0.577194   -1.361663
C     -7.596688    0.823150    0.498409
C     -5.690461   -0.317946   -1.225200
C     -6.275535    1.091709    0.650567
C      3.894608   -0.161379    1.269232
C      1.713923   -0.633164   -0.711782
C      2.507703    0.388560   -1.453774
C     -3.905723    0.866998    0.033642
C      0.332234    0.940865    0.701304
C     -5.313075    0.534730   -0.195193
C      1.460761   -0.036209    0.628013
C      2.726424    0.751551    0.894234
C     -3.247528   -0.025286    1.042879
C      3.005171    1.351937   -0.434818
C     -0.988824    0.438515    0.341604
C     -3.296611   -1.429230    0.588721
N     -1.906526    0.427769    1.218491
O      3.533204    2.417463   -0.700451
O     -1.245047   -0.019279   -0.928682
O     -4.414099   -1.986634    0.476287
O     -2.149060   -2.126695    0.291633
H      5.802508    0.705242   -2.042379
H      7.336416    1.171520   -1.254518
H      7.257147   -0.384495   -2.189654
H      7.344311   -0.959878   -0.007575
H      5.646159   -1.205610   -0.376639
H      7.020879    1.211498    1.109699
H     -9.041096   -0.215282   -0.614508
H      4.976005    1.400479    2.336718
H     -7.370752   -1.240825   -2.157442
H     -8.312309    1.274018    1.173953
H     -4.952035   -0.765796   -1.905957
H     -5.951898    1.753040    1.444791
H      3.956516   -0.966838    0.557968
H      3.584761   -0.599173    2.265085
H      2.374915   -1.531358   -0.554262
H      0.816940   -0.982588   -1.258999
H      1.930231    0.898885   -2.255721
H      3.375687   -0.089394   -1.969367
H     -3.381719    0.798807   -0.948324
H     -3.793835    1.956221    0.326954
H      0.351678    1.362810    1.746233
H      0.570326    1.834786    0.056101
H      1.374969   -0.807562    1.432659
H      2.569684    1.527026    1.675153
H     -3.777514    0.063134    2.049121
H     -2.145441   -2.971869   -0.297486
