34

C     -0.331446   -1.487763   -1.547494
C     -0.807250    1.406504   -1.438158
C      3.800517    0.123805    0.202390
C      3.419881    1.301403   -0.407221
C     -2.541621   -0.458466    1.365947
C      2.865972   -0.776101    0.617047
C      2.077946    1.554002   -0.590645
C     -2.094040   -1.121691    0.101138
C     -2.224150    1.032489    1.224136
C      0.285132   -1.336035    0.791535
C      1.517552   -0.555801    0.449640
C      1.144561    0.631503   -0.164550
C     -0.673268   -0.811240   -0.262819
C     -0.354224    0.656643   -0.239926
N     -0.834050    1.254403    0.959919
H     -1.027575   -1.287933   -2.375682
H      0.730094   -1.277818   -1.806132
H     -0.373371   -2.592313   -1.363904
H     -1.846131    1.817797   -1.289153
H     -0.819962    0.812895   -2.371132
H     -0.164809    2.304920   -1.564199
H      4.863572   -0.052640    0.335764
H      4.165531    2.035885   -0.746375
H     -2.089822   -0.892132    2.262754
H     -3.648508   -0.535239    1.412192
H      3.190190   -1.701007    1.096894
H      1.806116    2.478105   -1.067900
H     -2.152537   -2.235321    0.242464
H     -2.761363   -0.864642   -0.732617
H     -2.867679    1.409727    0.428732
H     -2.451687    1.538502    2.203140
H      0.470334   -2.415825    0.670573
H     -0.022216   -1.043301    1.803400
H     -0.251688    1.086688    1.800243
