42

C      6.328258    1.485851   -0.928403
C      4.821268    1.462402   -1.069281
C      4.312914    0.270256   -0.312301
C      2.807716    0.135253   -0.377299
C      2.444425   -1.097923    0.422661
C      0.953414   -1.354074    0.440729
C      0.204112   -0.191595    1.054388
C     -1.299060   -0.456950    1.075986
C     -1.841598   -0.661269   -0.300649
C     -5.531127   -0.022778    0.287971
C     -4.031117    0.239995    0.380445
C     -3.320021   -0.927068   -0.245023
N     -3.707833    1.420703   -0.420141
O     -6.243302    1.052557    0.762252
O     -3.615711   -2.052844    0.526475
H      6.690656    2.429359   -0.445730
H      6.839718    1.319811   -1.908519
H      6.700062    0.665158   -0.263592
H      4.568919    1.445784   -2.144364
H      4.426634    2.415457   -0.632923
H      4.584854    0.394429    0.745745
H      4.738355   -0.637583   -0.773628
H      2.348631    1.048910    0.101568
H      2.427192    0.089309   -1.408997
H      2.909308   -1.959327   -0.099562
H      2.853571   -0.961374    1.436065
H      0.793711   -2.235575    1.094568
H      0.621486   -1.575014   -0.581890
H      0.363901    0.687463    0.392138
H      0.575855    0.055769    2.063528
H     -1.761614    0.364933    1.623080
H     -1.454363   -1.379173    1.671232
H     -1.613214    0.184508   -0.986757
H     -1.386757   -1.565673   -0.792643
H     -5.711318   -0.964935    0.868365
H     -5.769375   -0.247193   -0.780432
H     -3.736769    0.384099    1.428267
H     -3.722416   -1.104197   -1.278777
H     -3.391935    1.138227   -1.358733
H     -4.569761    1.990786   -0.496556
H     -6.706833    1.508829    0.020793
H     -3.900838   -2.795302   -0.048506
