42

C     -5.786986    0.686479   -0.145455
C     -4.748239   -0.118542   -0.869383
C     -3.597489   -0.364104    0.082888
C     -3.058214    1.005860    0.488812
C     -1.909438    0.833689    1.437481
C     -0.767878    0.033917    0.821782
C     -0.281956    0.762609   -0.380550
C      0.829208    0.033470   -1.060038
C      1.996913   -0.111220   -0.101364
C      4.708896    0.337671    0.733499
C      4.276494   -0.988714    0.178807
C      3.145021   -0.827808   -0.778327
N      3.829961   -1.818635    1.290836
O      5.110958    1.198337   -0.279286
O      2.710023   -2.057231   -1.293789
H     -5.657362    1.773135   -0.364690
H     -6.814021    0.346264   -0.393730
H     -5.698683    0.597668    0.972866
H     -5.195477   -1.086897   -1.207345
H     -4.320411    0.425522   -1.749988
H     -2.820516   -0.997162   -0.345362
H     -4.036731   -0.839507    0.991725
H     -2.834301    1.646507   -0.362881
H     -3.867784    1.541807    1.072150
H     -2.235975    0.431945    2.405277
H     -1.483245    1.860358    1.612070
H      0.018907    0.023748    1.609290
H     -1.036849   -1.017627    0.641922
H     -1.089478    0.992063   -1.113312
H      0.057007    1.778534   -0.013018
H      1.159120    0.622112   -1.944324
H      0.540265   -0.957319   -1.442389
H      1.683775   -0.602734    0.819775
H      2.377554    0.912131    0.179057
H      3.899894    0.804417    1.308256
H      5.588490    0.184039    1.444759
H      5.157509   -1.493776   -0.326694
H      3.490209   -0.244825   -1.663321
H      3.210191   -2.595486    0.987913
H      4.586068   -2.079018    1.929426
H      5.403112    2.055329    0.149172
H      3.461460   -2.687007   -1.338617
