31

C      1.839018   -1.676601    0.581160
C     -3.839027    0.045892    0.201518
C     -3.409855    1.209629    0.796676
C      2.571454    0.526736   -0.989938
C     -2.964204   -0.934686   -0.182671
C     -2.059632    1.364446    0.998517
C      1.366667   -0.304231   -1.376118
C      2.100734    1.704800   -0.220173
C     -0.438667   -1.693431   -0.304531
C     -1.588521   -0.787793    0.017812
C     -1.156147    0.366751    0.608883
C      0.344160    0.334457    0.735456
C      0.770465   -0.823864   -0.086682
N      0.835832    1.594784    0.351537
H      1.403437   -2.612489    1.006385
H      2.292519   -1.135199    1.450300
H      2.618463   -2.004711   -0.142267
H     -4.912153   -0.081957    0.038806
H     -4.133816    1.976318    1.093282
H      3.172303    0.808653   -1.899476
H      3.269131   -0.056090   -0.328734
H     -3.286984   -1.858640   -0.653499
H     -1.669549    2.277255    1.470407
H      1.599099   -1.082356   -2.098977
H      0.610534    0.406936   -1.803087
H      2.104229    2.585622   -0.929401
H      2.847880    1.995070    0.573052
H     -0.515045   -2.076127   -1.340503
H     -0.486582   -2.530302    0.416022
H      0.554039    0.112534    1.800894
H      0.160218    2.348594    0.215349
