17

C     -1.441524    0.845560    0.424695
C     -0.937451   -0.525114   -0.037783
C      0.432262   -0.396248   -0.676347
C      1.457670    0.004597    0.306099
N      2.474032   -0.756004    0.532272
O     -1.855846   -0.988283   -0.975490
O      0.362879    0.500188   -1.733019
O      1.388435    1.185421    1.019632
H     -1.124497    0.995189    1.485199
H     -1.000068    1.605241   -0.255150
H     -2.534666    0.908922    0.394864
H     -0.911838   -1.195677    0.830372
H      0.682555   -1.380451   -1.098348
H      2.587890   -1.669672    0.022718
H     -2.337055   -1.788633   -0.658842
H      0.879419    1.310808   -1.472367
H      1.877805    1.344156    1.891493
