17

C     -1.634819   -0.608472   -0.306230
C     -0.850012    0.204003    0.697282
C      0.416935    0.768301    0.077285
C      1.373254   -0.325035   -0.215062
N      2.542367   -0.345223    0.325215
O     -1.650209    1.310982    1.023351
O      0.131064    1.512061   -1.066188
O      1.058215   -1.373536   -1.079334
H     -1.543734   -1.703103   -0.078562
H     -2.720581   -0.386372   -0.227575
H     -1.245969   -0.471131   -1.338540
H     -0.641399   -0.431559    1.561852
H      0.907578    1.466920    0.783427
H      3.239685   -1.088754    0.148665
H     -1.786873    1.409439    1.990409
H      0.764485    2.272842   -1.190141
H      1.640012   -2.211360   -1.105856
