34

C     -2.584166   -1.584217    1.054491
C     -1.617782   -0.499416    1.474381
C      3.742788   -1.194599   -1.052778
C      3.873236    0.140724   -0.738762
C     -2.165232    1.436798   -0.578238
C      2.544506   -1.823304   -0.806910
C      2.843590    0.864930   -0.187375
C     -1.404240    0.179062   -0.908654
C     -1.230058    2.465741   -0.007516
C      0.112001   -1.540106    0.111688
C      1.479819   -1.100083   -0.243652
C      1.618089    0.225441    0.065014
C      0.364509    0.789874    0.650950
C     -0.650985   -0.254549    0.309825
N      0.133397    2.058095    0.050405
H     -3.519987   -1.164716    0.610047
H     -2.113028   -2.184923    0.260771
H     -2.824539   -2.267151    1.901232
H     -1.020905   -0.935070    2.322542
H     -2.100912    0.414677    1.814468
H      4.585681   -1.719450   -1.485872
H      4.842496    0.615630   -0.946696
H     -2.968946    1.256951    0.171857
H     -2.709897    1.823279   -1.486916
H      2.394675   -2.871518   -1.036963
H      2.931687    1.906889    0.062397
H     -2.028265   -0.602347   -1.343258
H     -0.644126    0.464219   -1.679233
H     -1.267419    3.413562   -0.614435
H     -1.558029    2.796920    1.021132
H     -0.334022   -2.132188   -0.739549
H      0.115918   -2.190577    0.983512
H      0.442658    0.910847    1.743995
H      0.717487    2.300577   -0.751898
