89

C      3.531811    2.923253    0.128375
C      3.844386    3.046469    2.661609
C     -3.259729    3.440356   -3.215041
C     -5.474439    1.056554   -1.806740
C      4.425608   -2.174304   -3.426531
C     -2.782746    1.646444    1.664937
C      1.188911   -0.344412   -1.039083
C     -1.715483   -2.444577   -0.324748
C      4.478834    0.233244    2.659662
C      4.144646    0.987530    1.438421
C      3.412390   -0.873215    2.866643
C      0.435227   -0.750772    2.266416
C     -1.124460   -0.870698    2.192082
C     -5.231356   -0.436345    1.060985
C     -3.830573   -0.531336    1.624958
C     -1.705446    2.077748   -1.702975
C      0.759772   -2.701933   -0.744993
C      3.852257    2.264458    1.408185
C     -2.513288    3.284345   -1.944209
C     -4.637203    1.407601   -0.567018
C      3.687233   -2.861276   -2.307519
C      3.407213   -1.718444    1.689272
C     -2.394648    0.789554   -1.577267
C      0.932262   -1.551694    1.172681
C     -5.486045    0.950592    0.596134
C      2.289009   -2.736295   -0.306434
C     -1.460963   -0.227890    0.862126
C      2.305534   -1.974615    0.983254
C     -3.392392    0.559957   -0.519179
C     -1.431568   -0.376284   -1.528634
C      4.634881   -2.466953    1.326688
C     -2.843324    0.355419    0.868693
C      0.411326   -1.291878   -0.209479
C     -1.095428   -1.087360   -0.283903
O     -2.594717    4.178765   -1.124505
O      3.740249   -4.133184   -2.261762
O     -6.298172    1.713511    1.068255
O     -0.909514   -0.746985   -2.563234
O      4.714062   -3.316240    0.445914
O      5.817016   -2.209570    2.028964
O      2.979967   -2.167146   -1.364881
H      4.424381    3.314122   -0.400511
H      2.833659    3.777846    0.363808
H      2.991115    2.289122   -0.587197
H      3.231539    2.568656    3.459080
H      4.865579    3.232072    3.053914
H      3.403962    4.038671    2.457576
H     -3.295912    2.494647   -3.793984
H     -2.734387    4.208107   -3.847663
H     -4.248522    3.848369   -2.991225
H     -4.952080    0.286843   -2.427123
H     -6.469706    0.686607   -1.563336
H     -5.613865    1.932871   -2.470990
H      4.332840   -2.828005   -4.305530
H      5.509960   -2.152469   -3.162172
H      4.004747   -1.198183   -3.659604
H     -3.407001    2.438650    1.254646
H     -3.097229    1.496452    2.726027
H     -1.720211    2.019426    1.745867
H      2.177232   -0.173745   -0.592687
H      1.328208   -0.766729   -2.054362
H      0.700655    0.635140   -1.212376
H     -2.788703   -2.514388   -0.432981
H     -1.471165   -3.042018    0.592954
H     -1.307773   -2.939273   -1.258720
H      5.485533   -0.148047    2.656321
H      4.404204    0.903703    3.576452
H      4.151835    0.444417    0.476522
H      2.539278   -0.278669    3.114441
H      3.820211   -1.409971    3.776595
H      0.636252   -1.265850    3.235504
H      0.550236    0.334494    2.261883
H     -1.561021   -0.242129    2.984504
H     -1.353362   -1.927274    2.267839
H     -5.425026   -1.195062    0.257706
H     -5.999459   -0.624970    1.854980
H     -3.476318   -1.576588    1.687797
H     -3.925690   -0.207173    2.703647
H     -0.963694    2.292284   -0.895165
H     -1.035027    1.990155   -2.622149
H      0.314049   -3.505116   -0.188884
H      0.778480   -2.760018   -1.819724
H     -4.509077    2.472748   -0.586605
H     -2.948064    0.630995   -2.562814
H      0.413675   -2.602428    1.400510
H      2.508735   -3.791530   -0.119554
H     -0.774647    0.659493    0.786630
H     -3.834310   -0.476954   -0.777012
H      6.694784   -2.291692    1.506266
