66

C      5.837921    1.402197   -1.943947
C      6.981332   -0.858131   -2.277532
C     -5.409492    1.261442   -1.669533
C     -0.866222    2.610903   -1.228966
C      2.630959    1.506135    1.842017
C      4.532127    0.307133    0.417006
C     -2.649885   -0.860178   -2.275736
C     -4.126955   -1.326347    0.864667
C      5.471099   -0.490636   -0.426949
C     -4.148756   -0.993865   -2.050752
C     -2.125310    0.513635   -1.933936
C     -4.722014   -0.172037    0.139582
C      3.202066   -0.376769    0.409901
C     -3.750418   -0.962942    2.271399
C      0.284858    0.546540   -1.010666
C     -1.497828    0.232873    2.137146
C      0.347582   -0.492731    0.006219
C     -0.052925    0.678759    2.194015
C     -1.907218   -2.142107    3.094431
C      6.060890    0.004630   -1.493551
C     -4.740194   -0.000371   -1.160296
C     -1.073790    1.092941   -1.463730
C      2.248118    0.399180    1.243899
C     -2.216818   -0.784414    2.457972
C      0.875561   -0.131459    1.358650
O     -2.651627   -2.240593    4.309699
H      6.070153    2.144153   -1.127217
H      6.438789    1.668313   -2.820413
H      4.760330    1.567439   -2.171309
H      7.495010   -1.553739   -1.583597
H      6.436754   -1.417925   -3.056736
H      7.735998   -0.211774   -2.800606
H     -5.423002    1.316338   -2.756852
H     -6.465854    1.258597   -1.269860
H     -4.930899    2.131636   -1.186631
H     -1.372916    2.952719   -0.305001
H     -0.951751    3.271018   -2.057671
H      0.234581    2.775448   -0.936528
H      3.637876    1.861448    1.733477
H      1.940339    2.086397    2.462571
H      4.895122    0.306515    1.485660
H      4.462914    1.304506   -0.026261
H     -2.463297   -1.119757   -3.338261
H     -2.235953   -1.702777   -1.708772
H     -3.398791   -1.907465    0.322986
H     -5.010975   -2.033735    0.965179
H      5.656597   -1.507738   -0.130193
H     -4.402913   -2.034279   -1.814585
H     -4.621029   -0.819628   -3.067024
H     -3.089672    1.093883   -2.296057
H     -5.182322    0.590032    0.796348
H      3.357860   -1.409981    0.822495
H      2.769578   -0.487917   -0.595718
H     -4.406603   -0.203827    2.620457
H     -4.066564   -1.869095    2.896802
H      0.953908    1.385420   -0.644856
H      0.881033    0.192520   -1.902305
H     -1.919538    1.210098    1.617879
H     -0.694551   -0.909697    0.151453
H      0.935021   -1.407403   -0.316208
H      0.074528    1.731232    1.846365
H      0.359411    0.752419    3.220351
H     -0.948411   -2.454335    3.373890
H     -2.255522   -2.970061    2.388648
H      0.997259   -1.113161    1.921956
H     -2.785560   -3.189624    4.530336
