55

C      6.372405    0.106001   -1.326336
C      5.599792    1.764426    0.294349
C     -5.299719    2.094759    0.634650
C     -3.459403   -1.713196    0.572511
C      0.986364    0.303488   -1.231111
C      3.526195   -0.315775    0.449723
C      3.989479    0.163014   -0.886738
C     -3.001863    1.490905    1.317733
C     -2.164095    0.301373    1.627257
C     -4.179202    0.595168   -0.781581
C     -0.242716   -2.119437   -0.312794
C      2.203716   -0.934918    0.578340
C     -3.162502   -0.278674   -1.361512
C     -1.609136   -2.196656   -0.920189
C      5.401804    0.670461   -0.659433
C     -4.064780    1.315086    0.339770
C     -1.486678   -0.161919    0.361486
C     -0.228745   -0.910903    0.589561
C     -2.450149   -1.087937   -0.338704
C      1.026013   -0.107954    0.201566
O      1.033198    1.096165    0.946993
H      6.227027   -0.712099   -2.040038
H      7.414351    0.426026   -1.207641
H      5.938725    1.414983    1.299834
H      6.404180    2.451135   -0.073213
H      4.679255    2.386471    0.442081
H     -5.281492    2.583181    1.617339
H     -6.151847    1.361438    0.587557
H     -5.417325    2.845150   -0.167460
H     -4.000508   -2.483425   -0.055320
H     -4.235395   -1.055190    0.959068
H     -2.974717   -2.337351    1.376132
H      1.136770    1.383919   -1.420719
H     -0.038564    0.092998   -1.683059
H      1.659383   -0.272459   -1.886723
H      4.310615   -1.085755    0.777474
H      3.668110    0.513252    1.227310
H      3.986277   -0.668836   -1.596361
H      3.389885    1.054994   -1.228202
H     -3.444951    1.837268    2.274061
H     -2.330037    2.308073    0.978884
H     -1.343324    0.647946    2.308531
H     -2.700213   -0.481663    2.170447
H     -5.105975    0.643312   -1.338730
H      0.495822   -2.068114   -1.124402
H      0.006969   -3.038361    0.286115
H      2.099351   -1.289416    1.663227
H      2.232245   -1.897583   -0.030998
H     -3.626007   -0.974826   -2.103606
H     -2.393179    0.306161   -1.939750
H     -2.028032   -3.195092   -0.678813
H     -1.588816   -2.143426   -2.035238
H     -1.255089    0.759399   -0.211591
H     -0.052011   -1.189094    1.650049
H      1.528536    1.803508    0.446158
