55

C      5.208547   -0.111045    0.885856
C      5.672376   -1.521644   -1.201628
C     -3.082476    3.720704    0.420730
C     -3.864429   -3.151457   -0.458820
C      1.746548   -1.319908   -0.172700
C      3.193210    1.309100   -0.544759
C     -3.923401   -0.006020   -0.938484
C      3.971758    0.240149   -1.152621
C     -3.765166    1.411692   -0.418356
C     -4.106951   -0.936496    0.247882
C      1.711773    1.129544   -0.463416
C     -1.333489    2.155778   -0.099205
C     -0.752799    1.327524    0.972136
C     -1.806059   -2.067552    0.622143
C      4.920288   -0.444521   -0.515578
C     -2.871782    2.277421   -0.106033
C     -3.029117   -2.041603    0.215989
C      1.253186   -0.024966    0.357196
C     -0.281437   -0.016280    0.456633
C     -0.803455   -1.149924    1.283158
O     -1.169036   -0.750738    2.590082
H      5.608446    0.937162    0.974856
H      4.273412   -0.123655    1.499540
H      5.944561   -0.759440    1.362593
H      5.626007   -2.488073   -0.677470
H      5.244855   -1.667015   -2.229445
H      6.757132   -1.261265   -1.277397
H     -3.803789    4.362099    0.015577
H     -2.103156    4.286720    0.171658
H     -3.047053    3.718242    1.529333
H     -4.754142   -3.381704    0.207956
H     -3.494457   -4.053583   -0.805479
H     -4.366388   -2.695255   -1.389593
H      2.568347   -1.720416    0.473458
H      0.916734   -2.099495   -0.236040
H      2.126951   -1.309066   -1.212750
H      3.556361    1.503155    0.499532
H      3.380654    2.241026   -1.142642
H     -3.202475   -0.405848   -1.623137
H     -4.894439   -0.088296   -1.551995
H      3.803284   -0.034988   -2.203017
H     -4.928931    1.582904   -0.288546
H     -4.198281   -0.320103    1.115708
H     -5.141598   -1.390647    0.188917
H      1.336681    0.992319   -1.526437
H      1.229380    2.069025   -0.083213
H     -0.892527    1.891017   -1.073002
H     -0.867438    3.170666    0.038658
H     -1.537984    1.118636    1.762759
H      0.068966    1.802626    1.553328
H     -1.130189   -3.035119    0.527405
H      1.596048    0.152554    1.420281
H     -0.639751   -0.138279   -0.574645
H      0.145702   -1.719091    1.555935
H     -2.069012   -1.166567    2.736396
