54

C      4.901161    1.881804    1.030738
C     -0.016585   -2.674598   -1.072351
C     -4.465374    0.416748    0.824760
C     -3.625393    1.528719   -1.215350
C      3.793576   -0.948011   -0.737353
C      2.510399   -1.752579   -0.780631
C     -2.311710   -1.694746    0.247214
C      2.749057    0.556280    1.344948
C      0.376855    0.747410    1.037824
C      3.756148    1.034871    0.627943
C      0.182182   -1.774213   -0.122915
C      3.522458    0.537155   -0.761256
C      1.543732   -1.337422    0.291603
C     -0.971443   -1.174825    0.567640
C     -3.036439   -0.791989   -0.732825
C      2.017889    0.763387   -0.854110
C     -2.086051    1.049869    0.707734
C     -3.268176    0.564781   -0.103680
C      1.604331    0.131468    0.457960
C     -0.852065    0.334309    0.284655
O     -4.290714   -1.348548   -0.977161
O      1.852728    2.152930   -0.819892
O     -2.316881    0.970368    2.078075
O     -0.656206    0.560838   -1.072167
H      4.651584    2.622557    1.804194
H      5.298891    2.439809    0.158018
H      5.735641    1.256755    1.461168
H     -0.970622   -3.030242   -1.417079
H      0.838901   -3.147723   -1.595086
H     -5.181861    1.255775    0.716995
H     -5.046512   -0.513467    0.596801
H     -4.149322    0.396318    1.890513
H     -3.130160    2.510857   -1.076193
H     -4.726303    1.751576   -1.208628
H     -3.357599    1.109449   -2.227829
H      4.402139   -1.270546   -1.605975
H      4.338702   -1.271426    0.173437
H      2.097646   -1.613058   -1.792149
H      2.801239   -2.819788   -0.671685
H     -2.354326   -2.730656   -0.057201
H     -2.924782   -1.648237    1.207719
H      2.768549    0.488684    2.428821
H      0.474096    1.827132    1.175120
H      0.266073    0.319823    2.077669
H      4.083177    1.082679   -1.517974
H      1.808594   -1.903675    1.221117
H     -0.749461   -1.266504    1.674420
H     -2.489726   -0.756439   -1.675610
H      1.570388    0.324606   -1.740051
H     -1.956795    2.124531    0.464879
H     -4.449972   -1.562746   -1.916894
H      2.163088    2.527383    0.019008
H     -1.732001    0.310767    2.521490
H     -0.992745    1.451798   -1.340417
