57

C      3.759849   -2.826516    0.042636
C      1.191127    3.399954    1.108737
C     -4.914526    0.205890    0.086569
C     -3.535257   -0.032789    2.083183
C     -0.966590   -0.833747   -2.161531
C      2.053417   -1.255083   -1.012176
C     -2.765631   -1.602527   -0.351493
C      0.910388   -1.290412   -0.430927
C     -1.401203   -2.270382   -0.334650
C      3.985933   -0.391419    0.340512
C      3.061985    1.903511    0.227159
C      0.579121    1.716570   -0.458672
C      3.474261   -1.493776   -0.559553
C      1.831956    2.267156    0.256324
C      4.002817    0.915874   -0.430185
C     -2.525186   -0.084653   -0.235821
C     -0.392273    1.120686    0.523335
C     -1.125589   -0.073957    0.218847
C     -3.539414    0.509151    0.702853
C     -0.527249   -1.065481   -0.800656
O      3.839515    0.628877   -1.745977
O      0.398526    0.889045    1.690179
O     -3.433209    1.906506    0.644899
H      4.466195   -2.765228    0.895809
H      4.160361   -3.583888   -0.678021
H      2.801226   -3.250196    0.448060
H      0.941236    3.094811    2.111635
H      0.146511    3.600321    0.652263
H      1.608590    4.375031    1.067391
H     -5.313672   -0.747404    0.476025
H     -4.805157    0.100622   -1.028648
H     -5.607498    1.058266    0.243240
H     -4.071236    0.722467    2.731842
H     -4.189696   -0.935913    2.130632
H     -2.564289   -0.181393    2.550235
H     -0.179718   -1.208570   -2.885919
H     -1.873704   -1.411428   -2.501698
H     -1.167043    0.196250   -2.502581
H      2.219837   -0.992311   -2.128770
H     -3.375536   -1.867971   -1.211539
H     -3.268613   -1.922109    0.604436
H      0.752046   -1.552410    0.702210
H     -1.314473   -3.079965   -1.059673
H     -1.048373   -2.499391    0.678543
H      3.322955   -0.267337    1.221555
H      5.014641   -0.601372    0.680021
H      3.905932    2.374384    0.918051
H      0.671758    1.182322   -1.358588
H     -0.003718    2.639138   -0.870158
H      4.181483   -1.473399   -1.436414
H      5.083157    1.325884   -0.398164
H     -2.736364    0.331345   -1.227423
H     -1.119163    1.901875    0.899872
H     -1.167985   -0.712404    1.169929
H      4.414350    1.110965   -2.375674
H     -0.256103    0.661567    2.399136
H     -3.590709    2.134959   -0.321207
