54

C      4.667521    1.557652   -1.853555
C      0.528748   -2.651292    1.216234
C     -4.602076    1.052275    0.472853
C     -3.336871    0.347287   -1.476843
C      3.820870   -1.031989    0.345909
C      2.745086   -1.726391   -0.431115
C     -2.137961   -1.811664    0.692616
C      2.290004    0.960938   -1.392260
C      0.116772    1.026455   -0.329431
C      3.569355    1.023484   -1.014460
C      0.353015   -1.686738    0.357311
C      3.673682    0.472301    0.363245
C      1.434089   -1.090875   -0.466844
C     -0.973151   -1.083512    0.134798
C     -3.418713   -1.056223    0.598176
C      2.283060    0.840579    0.908158
C     -2.190223    1.047388    0.658684
C     -3.324906    0.319003    0.021519
C      1.467183    0.421918   -0.273941
C     -0.866976    0.348037    0.600243
O     -4.388461   -1.760859   -0.155867
O      2.203991    2.207272    1.033918
O     -2.074507    2.348350    0.116744
O     -0.268593    0.317244    1.864213
H      4.322014    2.260128   -2.623271
H      5.427823    2.075960   -1.208370
H      5.201862    0.735039   -2.374018
H     -0.268998   -3.091554    1.824166
H      1.495137   -3.139164    1.441004
H     -5.442574    0.411043    0.161718
H     -4.608873    1.122484    1.573992
H     -4.661600    2.049442   -0.014232
H     -3.333047   -0.692786   -1.889230
H     -4.294539    0.781586   -1.891687
H     -2.544779    0.985845   -1.918857
H      4.836259   -1.238061   -0.054503
H      3.842388   -1.355926    1.407830
H      2.682810   -2.776068   -0.101188
H      3.174872   -1.832007   -1.480045
H     -2.262714   -2.751550    0.075772
H     -2.026711   -2.174792    1.728928
H      1.886236    1.247557   -2.347608
H     -0.214536    1.010806   -1.393269
H      0.224539    2.113022   -0.080540
H      4.477894    0.902881    0.956577
H      1.033798   -1.191074   -1.528154
H     -1.143464   -1.013352   -0.982201
H     -3.837258   -0.920767    1.637472
H      2.065747    0.294659    1.836348
H     -2.454620    1.202774    1.733192
H     -4.905333   -2.326192    0.480917
H      2.341307    2.631030    0.171380
H     -2.412464    3.035619    0.714437
H     -0.172110    1.252778    2.153136
