56

C     -3.480098    2.979593   -0.805651
C      2.649733   -2.419236    1.067273
C      4.588718   -1.367905    0.025605
C      1.165630    2.247882    1.321488
C     -3.763203    1.006653    0.618161
C     -3.524087   -0.262474   -0.209295
C     -1.525001    2.394741    0.542028
C      3.022220    0.962670   -0.741326
C     -0.522731    1.932906   -0.459381
C      1.882233    1.885094   -0.982309
C     -0.495197   -2.054051    0.096023
C     -2.181428   -2.188749   -1.876709
C     -2.947538    2.162466    0.079024
C      2.339203   -0.336780   -0.332753
C     -2.747991   -1.295302    0.512134
C     -0.164505   -0.642298    0.406386
C      3.226219   -1.113764    0.614786
C      0.816843    1.530645    0.064713
C     -1.933289   -2.200927   -0.413292
C      1.001540    0.008002    0.195914
O     -2.437762   -3.528285   -2.261637
O      3.427000   -0.331282    1.765742
O     -2.942068   -2.656704    0.356921
O      0.657298   -0.414086    1.508997
H     -4.487513    2.822266   -1.139173
H     -2.913998    3.801276   -1.195169
H      3.429492   -3.110192    1.466018
H      2.246482   -2.936897    0.161218
H      1.869962   -2.351740    1.825830
H      5.268246   -0.503081    0.205971
H      4.994558   -2.299328    0.474906
H      4.438284   -1.510235   -1.073865
H      0.845595    1.695399    2.248189
H      2.272378    2.343720    1.419557
H      0.709333    3.258963    1.278986
H     -3.355833    0.819190    1.637930
H     -4.817483    1.274569    0.680483
H     -4.553739   -0.664739   -0.436003
H     -3.048302    0.095119   -1.145334
H     -1.388503    2.018343    1.571545
H     -1.488853    3.520516    0.676162
H      3.727650    1.314228    0.031644
H      3.555718    0.814865   -1.722009
H     -0.322880    2.842071   -1.114334
H     -0.929138    1.208815   -1.220762
H      2.159660    2.952860   -0.817988
H      1.437427    1.696136   -1.964562
H      0.134371   -2.354906   -0.792845
H     -0.284649   -2.785375    0.885429
H     -3.119348   -1.649474   -2.182192
H     -1.313711   -1.871127   -2.491272
H      2.223688   -0.945815   -1.250437
H     -2.361378   -1.088677    1.530753
H     -1.105989   -0.014677    0.367994
H     -2.782707   -4.051579   -1.493699
H      2.849445   -0.639305    2.484187
