77

C      8.378120   -1.178402    0.434738
C     -6.160920   -1.131883   -0.594211
C      0.579436    1.550553    0.696068
C     -3.180771    4.036526   -1.347999
C     -4.479211   -3.380861    2.311769
C     -0.883987   -1.362572    1.346894
C      8.251479    0.101447   -0.377800
C      7.659982    1.161209    0.525748
C      6.313488    0.751883    1.037213
C      5.366970    0.536392   -0.094590
C     -4.133182   -1.025226   -1.806238
C     -2.958560   -1.632861   -1.770005
C     -4.937402   -0.617481   -0.678609
C      0.646748    0.542239   -0.366851
C     -2.495441    3.086113   -0.432877
C     -3.557642   -3.297318    1.149918
C     -2.259783   -2.008393   -0.541521
C      3.998822    0.131582    0.393600
C     -0.706474   -0.025035   -0.832549
C     -4.666122    0.329999    0.392028
C      1.643265   -0.506337   -0.025334
C      1.381227   -1.827680   -0.633797
C     -1.630148    0.957368   -1.350956
C     -3.423931    1.086644    0.490114
C      0.105443   -2.300650   -0.574791
C     -2.927836    3.301734    0.956006
C     -1.021807   -1.301072   -0.155103
C     -2.778307    1.601288   -0.718502
Cl    -6.108603    1.453643    0.459497
O     -3.131701   -4.377797    0.664992
O      3.819628    0.023719    1.633878
O     -0.731013    2.019854   -1.732441
O     -2.493346    4.206845    1.698838
O     -3.903221    1.719727   -1.606534
O     -3.137415   -2.138342    0.567845
O      2.962314   -0.118210   -0.453669
O      0.719265   -2.021392   -1.817558
O     -3.848474    2.314940    1.156469
H      7.402600   -1.728033    0.363278
H      9.220611   -1.781710    0.063321
H      8.549923   -0.879175    1.497172
H     -6.811464   -0.863150    0.231962
H     -6.594468   -1.813932   -1.301261
H      1.062495    2.537942    0.432460
H      1.184017    1.207935    1.571430
H     -0.401322    1.816025    1.096003
H     -2.525567    4.204468   -2.245306
H     -3.321173    4.992237   -0.840874
H     -4.172955    3.670574   -1.699635
H     -4.334050   -4.369072    2.839533
H     -5.523872   -3.419614    1.935331
H     -4.312956   -2.603113    3.064805
H     -0.528662   -0.443854    1.820972
H     -1.881186   -1.548895    1.857552
H     -0.256833   -2.182964    1.747212
H      9.277914    0.421187   -0.708776
H      7.623804   -0.116133   -1.256997
H      8.309063    1.326869    1.411075
H      7.520051    2.099882   -0.052206
H      5.927752    1.395107    1.835072
H      6.461752   -0.260793    1.519211
H      5.293573    1.410267   -0.735932
H      5.702999   -0.349749   -0.694014
H     -4.523653   -0.826100   -2.845535
H     -2.497877   -1.854410   -2.756401
H      1.114737    1.105782   -1.240540
H     -1.412491    3.304873   -0.478737
H     -2.047297   -3.123719   -0.754738
H     -0.333869   -0.464820   -1.842307
H     -4.789300   -0.206746    1.367937
H      1.729548   -0.535351    1.090044
H      2.245323   -2.541312   -0.495745
H     -2.000387    0.753051   -2.423871
H     -2.741633    0.717056    1.301709
H     -0.112640   -3.373715   -0.339961
H     -0.255811    1.784302   -2.550746
H     -3.517587    1.876609   -2.510877
