56

C      3.455781   -2.555118    1.144636
C     -3.880684    0.023779   -1.556762
C     -3.073784    2.298375   -0.942594
C     -0.700948   -2.064843   -1.746658
C      3.787119   -0.715844   -0.354502
C      3.571805    0.544931    0.495871
C      1.668661   -2.247369   -0.440341
C     -2.721475   -0.993631    0.947808
C      0.567684   -1.673770    0.382668
C     -1.898146   -2.098025    0.380210
C      0.382224    2.069772   -0.057174
C      1.838130    2.147228    2.055112
C      2.965148   -1.857323    0.129329
C     -2.243111    0.303249    0.332146
C      2.735692    1.523643   -0.248612
C      0.121695    0.741692   -0.697097
C     -3.378736    0.899731   -0.449996
C     -0.738715   -1.491757   -0.345587
C      1.750415    2.131748    0.551476
C     -1.026197    0.012442   -0.453687
O      1.699938    3.511652    2.420326
O     -4.450940    1.044397    0.461721
O      2.765694    2.893127   -0.009390
O     -0.823881    0.602707   -1.698525
H      4.405222   -2.337750    1.626973
H      2.909470   -3.394293    1.542347
H     -3.816850   -1.039294   -1.320714
H     -3.422568    0.283584   -2.556018
H     -4.978769    0.241894   -1.705364
H     -2.513870    2.811703   -0.116673
H     -2.423938    2.300223   -1.822860
H     -3.997716    2.876156   -1.149251
H     -0.229922   -3.056642   -1.777927
H     -1.754088   -2.150498   -2.092684
H     -0.214363   -1.340038   -2.431762
H      3.583191   -0.480795   -1.415583
H      4.862933   -0.966829   -0.257120
H      4.531440    0.957712    0.862468
H      3.035952    0.173149    1.397322
H      1.591872   -3.371534   -0.339386
H      1.578024   -2.071473   -1.529842
H     -2.616816   -0.996384    2.055313
H     -3.819552   -1.155482    0.748210
H      0.343260   -2.364886    1.248080
H      0.881923   -0.725528    0.855813
H     -2.530530   -2.756677   -0.249095
H     -1.516298   -2.770644    1.202760
H     -0.364403    2.202854    0.752230
H      0.199796    2.913630   -0.778804
H      1.083968    1.526164    2.541343
H      2.887040    1.914733    2.399035
H     -2.021659    0.990532    1.169837
H      2.704878    1.340534   -1.343906
H      1.079692    0.196284   -0.951253
H      2.249067    4.004847    1.760404
H     -4.079754    1.193956    1.375728
