39

C      2.439563   -0.353317   -1.488961
C      1.204032    2.360395   -1.289992
C     -2.784491    0.476277    0.308190
C     -2.012044   -1.057060   -1.398714
C     -0.055370    1.035892    2.341365
C      1.101007   -2.096892   -0.305805
C     -0.849873   -0.193869    2.020602
C      1.196135    0.891677    1.512458
C     -0.144088   -1.994504    0.501278
C     -0.905999    1.058865   -1.071511
C      1.769745   -0.743298   -0.198428
C      0.356804    1.244867   -0.721894
C     -1.535822   -0.097837   -0.383659
C     -0.521134   -0.548769    0.575364
C      0.722221    0.223092    0.250316
H      1.755729   -0.309231   -2.340722
H      3.049039    0.531392   -1.314883
H      3.163489   -1.188819   -1.722440
H      2.031754    2.588761   -0.612922
H      0.602491    3.295264   -1.393398
H      1.512374    2.077812   -2.317469
H     -3.359118   -0.321455    0.788412
H     -2.551939    1.340524    0.927304
H     -3.409796    0.867219   -0.547776
H     -3.004755   -1.491192   -1.082794
H     -2.263217   -0.480459   -2.335462
H     -1.358245   -1.862948   -1.690351
H      0.266161    1.074689    3.403659
H     -0.566401    1.980917    2.113531
H      0.964607   -2.342546   -1.367774
H      1.750207   -2.903517    0.119780
H     -1.917510   -0.108028    2.214543
H     -0.464350   -1.011475    2.697570
H      1.621182    1.901644    1.317315
H      1.969109    0.310273    2.048571
H     -0.967038   -2.647507    0.150527
H      0.090929   -2.345447    1.530719
H     -1.463016    1.686956   -1.801222
H      2.567629   -0.848343    0.564674
