50

C     -3.440202    3.050268   -0.597195
C     -4.812556   -0.121070    1.203320
C      3.248696    1.419466    0.567227
C      3.459417   -0.090696   -1.320014
C      0.385343   -0.697410   -2.327856
C     -3.399538    2.077762    0.266965
C     -0.674441    1.792816   -0.799277
C      0.823254    1.689551   -0.714577
C      1.803862   -1.991452    0.896878
C      1.171563   -2.052154   -0.478109
C     -1.604478   -1.708751    0.168206
C     -3.423875   -0.285647    0.663835
C     -2.697163    0.811738    0.172804
C     -1.425374    0.631651   -0.315810
C     -0.904782   -0.651428   -0.303925
C     -2.903076   -1.550895    0.672824
C      1.222125    0.353680   -0.198393
C      2.909222   -0.957837    0.955396
C      2.699623    0.142441   -0.088508
C      0.463535   -0.795598   -0.826720
O     -3.625179   -2.632579    1.159078
O      4.124132   -1.591462    0.805579
H     -2.933497    3.043933   -1.547212
H     -4.039215    3.951698   -0.339102
H     -5.365174   -1.046502    0.951455
H     -5.315699    0.775109    0.781681
H     -4.729286   -0.073518    2.312124
H      3.464313    2.181455   -0.203280
H      2.588936    1.774316    1.375393
H      4.215488    1.124324    1.024529
H      4.112025   -1.000940   -1.166126
H      4.217278    0.722617   -1.531618
H      2.917032   -0.228638   -2.247181
H      0.974450   -1.501251   -2.817378
H     -0.668745   -0.888608   -2.665920
H      0.629939    0.309222   -2.717558
H     -3.975582    2.243737    1.204070
H     -0.945155    1.928662   -1.877528
H     -1.034264    2.689846   -0.261817
H      1.325709    1.977206   -1.659370
H      1.163447    2.445933    0.035165
H      2.206459   -2.989636    1.113458
H      0.989916   -1.740055    1.607695
H      0.599180   -2.980568   -0.550404
H      2.035859   -2.197876   -1.195792
H     -1.237320   -2.725102    0.196033
H      0.879034    0.350734    0.887135
H      2.853227   -0.504717    1.966799
H     -3.194839   -3.550735    1.144106
H      4.866378   -0.933040    0.735045
