57

C     -3.067331    0.995124    1.885829
C     -1.060722   -1.421377   -1.242829
C      3.842434    1.511556    1.243616
C     -2.334894   -1.994701    1.313547
C      2.916241   -1.919225   -0.145926
C     -3.254167   -1.059990    0.630986
C     -0.891944   -1.677863    1.180848
C      1.575243   -1.630485   -0.802527
C      0.346985    1.370715   -1.468348
C      2.700666    0.870060   -0.890106
C      1.579217   -0.735024    1.359538
C     -3.751550    1.027701   -0.427152
C      3.041389   -0.838460    0.912601
C      1.292761    0.838069   -0.427092
C     -1.060275    1.504719   -0.917926
C     -1.335173    0.548906    0.193873
C     -2.770152    0.368356    0.521490
C     -0.579993   -0.758994    0.016915
C      3.571300    0.384891    0.258928
C      0.905505   -0.552092    0.021471
O     -3.635107    2.399831   -0.504949
O     -1.098198    2.809931   -0.351917
O      4.806435    0.056554   -0.302609
H     -3.060914    2.092921    1.753851
H     -2.270743    0.741062    2.619021
H     -4.051977    0.685728    2.273835
H     -1.819430   -0.833774   -1.795406
H     -0.251557   -1.609712   -1.988444
H     -1.538758   -2.414207   -1.029014
H      3.944320    1.153435    2.277289
H      4.774506    2.059871    0.992917
H      3.007501    2.244192    1.124003
H     -2.546180   -3.032270    0.917182
H     -2.596126   -2.078774    2.409789
H      2.956374   -2.886755    0.352039
H      3.754930   -1.820714   -0.857029
H     -3.627927   -1.457304   -0.356531
H     -4.207034   -1.018331    1.242029
H     -0.573144   -1.133325    2.098598
H     -0.328512   -2.618583    1.015487
H      1.754589   -1.368803   -1.841523
H      0.968249   -2.559373   -0.659384
H      0.756262    2.345217   -1.808480
H      0.397461    0.686981   -2.341529
H      3.013599    1.913722   -1.114644
H      2.943933    0.275948   -1.769578
H      1.359730   -1.716268    1.826514
H      1.426297    0.119847    2.040810
H     -3.679057    0.636121   -1.456346
H     -4.806644    0.823405   -0.115178
H      3.694292   -1.134636    1.739591
H      1.204949    1.495202    0.462045
H     -1.736224    1.445529   -1.768369
H     -0.807203    0.994792    1.097780
H     -4.336429    2.877030    0.029695
H     -0.259386    2.983606    0.144584
H      4.801586    0.010015   -1.271924
