39

C      3.504749   -0.898008   -0.221953
C     -3.769871   -0.770557    0.416745
C     -1.077276   -1.831450   -0.930767
C     -0.246376    2.513344    0.561010
C      1.790905   -0.783643    1.603632
C      1.024075    0.585513   -1.726465
C     -0.264103    1.370245   -1.582969
C      0.516172    0.023080    1.765205
C     -2.104747    1.062793   -0.011100
C      2.313902   -0.169394    0.296833
C     -2.388626   -0.187261    0.241954
C     -1.160513   -0.988507    0.332794
C      1.079954   -0.378359   -0.570144
C     -0.646458    1.239865   -0.110464
C     -0.040089    0.010374    0.379993
H      3.308047   -1.986311   -0.153925
H      3.699911   -0.569760   -1.249310
H      4.372414   -0.642934    0.390552
H     -3.995634   -1.495685   -0.373175
H     -4.516083    0.057689    0.376108
H     -3.809442   -1.174504    1.441203
H     -0.729769   -1.253395   -1.786701
H     -0.478411   -2.751591   -0.790749
H     -2.119623   -2.181084   -1.185155
H     -0.897059    3.326473    0.121244
H     -0.434097    2.543554    1.642553
H      0.789570    2.797158    0.275595
H      2.505012   -0.629698    2.425310
H      1.567850   -1.860796    1.443964
H      1.064269    0.059152   -2.677262
H      1.912794    1.263055   -1.627848
H     -1.057084    1.069395   -2.266325
H     -0.004789    2.429186   -1.843249
H     -0.115815   -0.531292    2.502616
H      0.818356    1.010500    2.135269
H     -2.806309    1.897822   -0.140226
H      2.479148    0.901534    0.505662
H     -1.154179   -1.647047    1.239426
H      1.069224   -1.429455   -0.849881
