38

C     -1.879026    2.060266    0.696806
C      3.169199   -0.925313    0.769410
C     -1.479172   -0.949677    1.771478
C      1.487707   -0.170941   -1.800639
C     -1.849528   -1.171413   -1.431548
C     -1.166385   -2.007295   -0.396237
C     -1.181373    0.167657   -1.362797
C      0.477471    2.454965    0.080138
C      0.768100   -1.478063    1.074946
C     -0.531382    1.470283    0.687080
C      1.706160   -0.765837    0.520215
C      1.632058    1.589227   -0.165830
C     -0.549138   -1.043046    0.595055
C      1.132995    0.218145   -0.386875
C     -0.348783    0.238563   -0.134247
O      2.801676    1.910132   -0.190313
H     -1.886398    2.968812    0.023244
H     -2.182820    2.480879    1.700051
H     -2.704040    1.435841    0.368665
H      3.503724    0.011137    1.278190
H      3.691440   -1.104071   -0.187919
H      3.357678   -1.750480    1.480741
H     -1.029954   -0.347199    2.580173
H     -2.508663   -0.664946    1.510509
H     -1.557388   -1.997103    2.186913
H      1.428264    0.674917   -2.514437
H      0.983494   -1.086640   -2.146715
H      2.586444   -0.437188   -1.770227
H     -2.947130   -1.123966   -1.302218
H     -1.695382   -1.691154   -2.418766
H     -1.922071   -2.664606    0.073849
H     -0.369697   -2.631014   -0.848547
H     -1.900677    1.016075   -1.457856
H     -0.552157    0.244755   -2.299068
H      0.705609    3.275307    0.776357
H      0.048146    2.793833   -0.877396
H      0.922291   -2.286999    1.796007
H     -0.161290    1.286155    1.721811
