40

C      3.786561   -0.563133   -1.598499
C      3.259133   -1.375623    0.606213
C     -2.043064   -2.267939    0.054369
C     -0.609118   -0.542126    1.654110
C     -3.208405    1.182118   -0.676765
C     -3.161337   -0.104176    0.153273
C     -1.917846    1.872573   -0.408252
C      1.670564    1.404644    0.227557
C      0.490817   -0.677781   -0.592664
C      2.925400   -0.570271   -0.593309
C     -1.932707   -0.835768   -0.343351
C      1.669114    0.222643   -0.706352
C     -0.800061    1.282498   -0.023735
C      0.376247    2.168528    0.188438
C     -0.664786   -0.171563    0.200783
O      0.197513    2.807634    1.417334
H      4.692838   -1.145982   -1.495488
H      3.600562    0.012847   -2.517005
H      4.314781   -1.165583    0.925891
H      2.549907   -1.277980    1.427993
H      3.258310   -2.462293    0.312375
H     -2.620960   -2.798073   -0.759454
H     -1.076233   -2.803421    0.118960
H     -2.674639   -2.415830    0.969819
H      0.380732   -0.512940    2.106078
H     -0.984072   -1.584303    1.751811
H     -1.307948    0.118868    2.203138
H     -4.081060    1.799118   -0.420410
H     -3.257864    0.853288   -1.735238
H     -3.093069    0.206996    1.198534
H     -4.041673   -0.745741   -0.043325
H     -1.968508    2.969322   -0.562505
H      2.469633    2.098996   -0.106107
H      1.885213    1.158452    1.276543
H      0.839935   -1.684219   -0.221205
H      0.089528   -0.926524   -1.621145
H     -1.897293   -0.778634   -1.452741
H      1.655086    0.662783   -1.736234
H      0.444454    2.963560   -0.571852
H      0.784315    3.625036    1.392415
