38

C     -1.692697   -2.260541   -0.332458
C     -3.631968   -0.806611    0.417203
C      4.049440   -1.259393   -0.891639
C      0.811160    2.172556    1.437625
C     -1.055384    2.431408   -0.109337
C     -1.937534    1.465883    0.599091
C      2.215689   -0.794163    0.634344
C      0.804901   -0.534321    0.890017
C      0.449451   -0.026081   -1.513976
C     -2.165115   -0.940401    0.077888
C      2.641280   -0.993899   -0.596277
C      0.302534    1.781925    0.103158
C     -1.380980    0.124135    0.164325
C      1.605294   -0.914696   -1.633926
C      0.066227    0.311545   -0.090970
O      1.738748   -1.639162   -2.642013
H     -2.485821   -2.817769   -0.922818
H     -1.546816   -2.949694    0.559717
H     -0.807508   -2.300405   -0.950933
H     -4.196623   -0.372076   -0.408729
H     -3.755641   -0.185586    1.327827
H     -4.072607   -1.797280    0.652692
H      4.672544   -0.318813   -0.898966
H      4.166680   -1.808123   -1.855107
H      4.459768   -1.890600   -0.075461
H      0.118576    1.810656    2.252739
H      1.855765    1.883666    1.639745
H      0.772317    3.279993    1.511871
H     -1.102999    3.435950    0.329880
H     -1.303587    2.535615   -1.183476
H     -3.008441    1.549649    0.330169
H     -1.863577    1.592341    1.692769
H      2.911420   -0.821940    1.462971
H      0.305378   -1.523120    0.947541
H      0.678529   -0.124286    1.935404
H     -0.373616   -0.389127   -2.140625
H      0.771860    0.939149   -2.039313
H      0.983353    2.153613   -0.680951
