40

C      3.751809    0.841062   -1.074664
C     -1.469577    1.911550   -0.013907
C     -2.756415    0.300053   -1.281796
C      0.007728   -0.252779   -1.678826
C     -2.147182   -1.667440    0.892844
C      2.706281   -1.040012    0.075827
C      1.496827   -1.325098    0.870312
C     -2.419445   -0.168630    1.059913
C     -1.254640   -1.797320   -0.294251
C      0.923222    0.991855    1.134220
C      2.903295    0.410879   -0.155231
C      0.377246   -0.327083    0.829153
C      2.135371    1.342853    0.659708
C     -1.751839    0.465211   -0.149682
C     -0.555744   -0.435330   -0.318747
O      2.682326    2.585167    0.928272
H      4.334493    0.177353   -1.693566
H      3.878044    1.900689   -1.224419
H     -0.489412    2.169858   -0.423386
H     -1.686146    2.321618    1.000173
H     -2.197238    2.487156   -0.672964
H     -3.468600    1.173603   -1.132807
H     -3.395093   -0.580357   -1.190764
H     -2.328082    0.489525   -2.281636
H     -0.736273   -0.722041   -2.396227
H      0.120282    0.830941   -1.930467
H      0.946608   -0.746896   -1.908295
H     -3.127048   -2.168448    0.764327
H     -1.719894   -2.028173    1.832059
H      3.602770   -1.361886    0.700573
H      2.837443   -1.654730   -0.844062
H      1.808029   -1.378519    1.961345
H      1.183385   -2.367469    0.654581
H     -3.515506    0.042953    1.006223
H     -2.065497    0.221266    2.020756
H     -1.856474   -1.858077   -1.215276
H     -0.576951   -2.643208   -0.291782
H      0.454910    1.755045    1.732988
H     -0.252334   -0.607873    1.740991
H      3.619322    2.712734    1.289961
