40

C     -2.907899    1.587039   -0.003543
C     -4.074167   -0.487466   -0.125144
C      2.056959    1.589393    1.821657
C      0.592548    1.590189   -0.653960
C      3.236284   -0.976591   -0.740892
C      3.182025    0.297128    0.019487
C      1.874581   -1.439136   -1.065166
C     -1.487265   -1.695688   -0.020944
C     -0.464725    0.310932    1.130586
C     -2.823422    0.298178    0.234546
C      1.988844    0.378912    0.913964
C     -1.674999   -0.438818    0.793980
C      0.737518   -0.892123   -0.685493
C     -0.532417   -1.565990   -1.156509
C      0.677648    0.320566    0.161531
O     -1.017723   -0.835008   -2.217297
H     -3.771073    2.087986   -0.418288
H     -2.066449    2.216919    0.225902
H     -4.024911   -0.853604   -1.164227
H     -4.968782    0.153061   -0.038262
H     -4.147832   -1.375531    0.540314
H      1.082338    1.830178    2.246805
H      2.749974    1.367365    2.645703
H      2.472659    2.440149    1.243758
H     -0.315749    1.624349   -1.297008
H      1.442707    1.666991   -1.394208
H      0.714180    2.493152   -0.021593
H      3.754400   -1.737334   -0.118230
H      3.809592   -0.813979   -1.683140
H      4.079263    0.416929    0.698906
H      3.274805    1.134095   -0.695322
H      1.825234   -2.348915   -1.699337
H     -1.162450   -2.553547    0.635250
H     -2.470993   -1.992670   -0.436192
H     -0.725435    1.348334    1.428979
H     -0.036716   -0.126073    2.091260
H      2.008842   -0.510514    1.578720
H     -2.095093   -0.848353    1.777749
H     -0.318297   -2.588602   -1.527603
H     -0.474001   -1.071906   -3.026742
