40

C     -1.225043    2.804352   -0.611684
C      2.479147   -1.495829   -1.008642
C      3.528035    0.231824    0.325756
C     -1.422230    0.400285    1.769191
C     -2.452285    0.923145   -1.348672
C     -3.004102   -0.213075   -0.626075
C      0.090831    0.684086   -1.251345
C      1.584783    0.745250   -1.121149
C      1.360605   -0.598496    1.018020
C     -0.645429   -1.989003    1.904067
C     -0.993598    1.365296   -1.093579
C      0.167442   -1.439213    0.780532
C     -2.040030   -1.200705   -0.103189
C      2.173605   -0.266643   -0.190689
C     -1.160237   -0.863037    1.032374
O     -1.974468   -2.294682   -0.613197
H     -1.700913    3.355966   -1.487237
H     -2.054474    2.811612    0.170671
H     -0.479129    3.416816   -0.236424
H      1.707264   -1.644239   -1.783064
H      3.486272   -1.394358   -1.511358
H      2.567337   -2.407687   -0.369518
H      4.086696    0.752782   -0.451422
H      4.138106   -0.676701    0.596197
H      3.367301    0.806607    1.250457
H     -1.551541    0.144803    2.863577
H     -2.393575    0.859259    1.496796
H     -0.619093    1.152761    1.760003
H     -2.716297    0.853801   -2.418302
H     -3.076452    1.832877   -1.029978
H     -3.747379   -0.732874   -1.323516
H     -3.689882    0.043228    0.240677
H      0.092446   -0.439329   -1.656369
H      2.083909    0.570553   -2.139719
H      2.025783    1.693419   -0.817874
H      2.050328   -1.214646    1.677922
H      1.196735    0.321292    1.613131
H     -0.372412   -1.752451    2.940663
H     -1.147135   -2.983004    1.808156
H      0.279078   -2.164043   -0.055189
