42

C     -5.954267   -0.593961   -1.223430
C     -5.902308   -0.442940    1.207368
C     -0.450960    0.259504   -1.332942
C      4.905039    0.287481    1.556492
C      5.020568    0.345983   -0.796652
C      2.061576    0.294954   -0.908448
C     -3.054217    0.209715   -1.239600
C      7.012306    0.351359    0.486119
C     -0.570447    0.192094    1.388993
C      0.713872    0.262979   -0.595240
C     -1.674307    0.222535   -0.717656
C      4.248490    0.304628    0.344329
C      6.279097    0.309988    1.657248
C      6.406324    0.369976   -0.748973
C      2.777256    0.279672    0.271161
C      0.676642    0.229102    0.789860
C     -1.741299    0.188380    0.656858
C     -3.821197   -0.339118   -0.047462
C     -5.263483    0.075422   -0.057706
O      6.942477    0.292636    2.882895
O      7.179571    0.411630   -1.901337
O     -5.452610    1.440797   -0.103915
O      1.923452    0.240594    1.254849
O     -3.097988    0.154627    1.038585
H     -5.566421   -0.234490   -2.189777
H     -7.042832   -0.433079   -1.102352
H     -5.740571   -1.682076   -1.176489
H     -6.944069   -0.094175    1.341266
H     -5.300029   -0.103726    2.058354
H     -5.855275   -1.569997    1.161527
H     -0.433263    0.285713   -2.412346
H      4.322104    0.255339    2.456810
H      4.533002    0.360164   -1.756938
H      2.429438    0.326152   -1.931394
H     -3.190156   -0.413527   -2.134333
H     -3.338198    1.238715   -1.484691
H      8.109750    0.370863    0.502936
H     -0.641307    0.164788    2.474979
H     -3.792866   -1.445927   -0.112497
H      7.221407   -0.562702    3.349443
H      6.704706    0.424811   -2.810186
H     -4.639007    1.974962   -0.095707
