42

C      6.084605   -0.315270   -0.775842
C      5.388694    0.915424    1.224871
C      0.585690    0.716863   -1.052266
C     -4.905316    0.591703   -1.053823
C     -4.935599   -0.712309    0.903017
C     -1.936399    0.584673   -0.940840
C      3.176202    0.533907   -0.688156
C     -7.002284   -0.067300   -0.136851
C      0.427091   -0.811377    1.237101
C     -0.644900    0.334348   -0.520352
C      1.716693    0.317377   -0.413348
C     -4.219364   -0.055881   -0.057813
C     -6.283770    0.601378   -1.115991
C     -6.309233   -0.710211    0.852391
C     -2.762318   -0.043591   -0.025948
C     -0.749435   -0.427924    0.620682
C      1.664987   -0.449628    0.736622
C      3.793408   -0.619747    0.055303
C      5.224616   -0.356681    0.446725
O     -6.930915    1.269561   -2.141586
O     -7.004049   -1.387053    1.844610
O      5.661910   -1.412377    1.242251
O     -2.010729   -0.625529    0.873858
O      2.951716   -0.721106    1.188696
H      7.066050    0.199612   -0.581092
H      5.586384    0.273131   -1.563684
H      6.301950   -1.368157   -1.115420
H      4.674706    1.018007    2.055852
H      5.309065    1.787410    0.532134
H      6.435544    0.920486    1.624245
H      0.596286    1.312842   -1.946836
H     -4.383855    1.128385   -1.841610
H     -4.401456   -1.228020    1.695789
H     -2.228630    1.155047   -1.807418
H      3.377533    0.460273   -1.774248
H      3.441347    1.518798   -0.268688
H     -8.084826   -0.054236   -0.193873
H      0.350628   -1.411795    2.136073
H      3.770414   -1.520179   -0.577229
H     -7.149472    0.786939   -2.997636
H     -6.535512   -1.876704    2.595986
H      4.892544   -1.837379    1.724344
