23

C     -1.597710    1.379620   -0.695111
C     -2.292076    0.460585   -0.031449
C     -0.693616   -0.666899   -1.259405
C     -0.258418    0.797684   -1.068774
C     -1.415145   -0.725644    0.100747
C      0.533295    0.699725    0.184388
C     -0.268325   -0.325604    0.996328
C      1.936370    0.295855    0.008578
N      0.539590   -1.431996    1.415950
N      2.929325    1.064900    0.385875
O      2.320264   -0.911366   -0.561152
H     -1.971220    2.376671   -0.912269
H     -3.296015    0.521612    0.353461
H     -1.411789   -0.749803   -2.092662
H      0.151815   -1.349652   -1.305855
H      0.195335    1.232435   -1.925059
H     -1.883056   -1.655761    0.307482
H      0.533752    1.679025    0.745817
H     -0.717244    0.183776    1.878180
H      0.572003   -1.457058    2.477103
H      0.175167   -2.363435    1.136984
H      2.690135    1.991765    0.823940
H      3.227562   -1.046435   -0.963094
