25

C      4.219981   -0.295678    0.545228
C     -2.145360    1.026023   -0.076979
C     -2.334301   -1.285976    0.167911
C     -0.781560    0.924768   -0.203516
C     -0.978671   -1.400592    0.043343
C      3.654675    0.173472   -0.752454
C     -2.972350   -0.063236    0.112222
C     -0.161825   -0.287593   -0.147323
C      2.191005    0.505932   -0.656680
C     -4.411157    0.069272    0.243254
Cl     4.565217    1.583762   -1.319460
N      1.237518   -0.454711   -0.282864
O      1.811967    1.668805   -0.916745
O     -4.992792    1.316748    0.179530
O     -5.122677   -0.932563    0.412381
H      3.642058    0.043560    1.428929
H      4.252139   -1.403555    0.557828
H      5.240875    0.107455    0.656201
H     -2.642063    1.996357   -0.122135
H     -2.938511   -2.177062    0.315583
H     -0.249552    1.839081   -0.338976
H     -0.480717   -2.366140    0.087584
H      3.753764   -0.616249   -1.497829
H      1.637485   -1.431990   -0.076044
H     -5.995147    1.460108    0.068232
