22

C      0.691583   -0.509657    0.997178
C      0.337760    0.831581   -0.946979
C      1.235418    0.212693    0.043160
C     -0.761838   -0.741406    1.141293
C     -0.717868   -0.195994   -1.295089
C     -1.531742   -0.639719   -0.132279
C      2.677149    0.386924   -0.020942
O     -1.215164    0.183687    2.104766
O     -1.453679    0.285439   -2.345147
O     -2.696123    0.134332    0.034221
O      3.144614    1.086653   -0.952587
O      3.549466   -0.177506    0.888824
H      1.378876   -0.957510    1.718425
H     -0.100519    1.792183   -0.613666
H      0.891192    1.051082   -1.892117
H     -0.882472   -1.753534    1.627079
H     -0.151676   -1.095785   -1.668958
H     -1.917170   -1.673503   -0.373823
H     -2.109824   -0.116033    2.428055
H     -2.364462    0.562693   -2.085963
H     -2.459360    1.077512    0.221648
H      4.455840    0.255865    1.122901
