29

C      4.170305   -0.094149    1.092934
C     -1.250144    1.603921   -1.827798
C     -3.380781   -1.357438    1.447478
C      1.888869    0.882795    1.034931
C      2.465164   -0.789931   -0.555573
C      0.634815    0.934807    0.457110
C      1.210599   -0.717812   -1.111021
C     -2.201182    0.084629   -0.260946
C      2.806766    0.013374    0.522034
C     -1.065258    0.201747   -1.230709
C     -2.283093   -1.164538    0.468016
C      0.263650    0.151015   -0.613534
O     -1.487315   -2.065373    0.310729
H      4.800083    0.755542    0.763574
H      4.627877   -1.065173    0.802213
H      4.063651   -0.000968    2.193533
H     -2.320875    1.645772   -2.151243
H     -0.615688    1.781072   -2.686701
H     -1.137968    2.308939   -0.994603
H     -3.188755   -0.700194    2.341605
H     -3.516272   -2.414113    1.746453
H     -4.301859   -0.944952    0.984759
H      2.146829    1.511095    1.873098
H      3.192578   -1.492023   -0.976779
H     -0.078958    1.626484    0.873488
H      1.006895   -1.380746   -1.960648
H     -2.170339    0.994847    0.388044
H     -3.144426    0.202913   -0.861329
H     -1.135169   -0.511540   -2.069113
