19

C     -2.339270   -0.129998   -0.689068
C      0.639782   -1.185954    0.671267
C      0.655102    0.955302   -0.299906
C      2.705501   -0.273456   -0.167430
C     -1.537156    0.070934    0.552686
C     -0.062772   -0.055622    0.305210
C      1.996440   -1.288376    0.437681
C      2.011947    0.861058   -0.537229
F      2.640880   -2.423287    0.817808
F      2.714271    1.869982   -1.138261
O     -1.840918    1.330645    1.077164
H     -2.406329   -1.216183   -0.892270
H     -3.374383    0.211598   -0.484260
H     -1.977818    0.449563   -1.550031
H      0.077793   -1.984712    1.148305
H      0.108364    1.845307   -0.589478
H      3.778296   -0.372118   -0.344153
H     -1.870507   -0.666611    1.311089
H     -1.919221    2.001928    0.370877
