22

C      0.454286   -1.178231    0.308245
C      0.428246    1.235513    0.353275
C      1.097702   -0.043168    0.187387
C     -0.979551   -1.204863    0.618343
C     -1.047331    1.251256    0.293108
C     -1.733130   -0.037447    0.038272
C      2.514286   -0.065143   -0.119391
O     -1.530678   -2.413684    0.292314
O     -1.416458    2.135678   -0.749399
O     -1.972377   -0.174703   -1.322078
O      3.175648    1.000880   -0.245233
O      3.233867   -1.241054   -0.294048
H      0.964404   -2.121293    0.182600
H      0.749231    1.648756    1.355729
H      0.910450    1.951898   -0.372456
H     -1.065346   -1.099455    1.740323
H     -1.481135    1.740051    1.214534
H     -2.726966   -0.012699    0.537764
H     -1.761743   -2.551353   -0.638351
H     -0.826825    2.947296   -0.730139
H     -1.178299   -0.475701   -1.824402
H      4.191721   -1.292538    0.060847
