16

C     -1.924516    0.405981    0.353461
C      1.558941   -1.099041    0.251356
C     -0.819037   -0.615572    0.438520
C      0.538503    0.019118    0.135096
N      0.809625    1.962653   -1.339621
O      1.404662    2.728791   -0.581738
O      0.565626    0.643435   -1.114223
H     -2.873348   -0.126906    0.547213
H     -1.711614    1.188808    1.089915
H     -1.900948    0.829201   -0.684549
H      2.525108   -0.840883   -0.192284
H      1.681060   -1.349542    1.337267
H      1.126730   -2.002336   -0.271587
H     -0.977829   -1.459396   -0.246503
H     -0.748729   -1.028468    1.466112
H      0.745765    0.744157    0.958680
