32

C      4.968506    0.629187    0.137891
C      1.684441   -1.921227   -0.287483
C     -0.791792   -2.213099   -0.554118
C      2.749012   -1.069221   -0.148759
C     -2.001751   -1.719829    0.158978
C      1.327909    0.839585   -0.232559
C     -2.236407    2.207786    0.652336
C      0.403281   -1.373917   -0.402094
C      2.587714    0.299809   -0.119919
C      0.264294   -0.010177   -0.371108
C     -2.101121   -0.255748    0.325930
C     -3.490646    1.582563    0.139256
C     -1.110213    0.534805   -0.495155
N     -3.424034    0.282751   -0.034538
O     -4.635809    2.293229   -0.135931
O      3.678568    1.173781    0.022258
O     -1.115391    1.842197   -0.041465
H      5.091743    0.063208    1.083839
H      5.126719   -0.037984   -0.748919
H      5.693706    1.480164    0.079496
H      1.764367   -2.998738   -0.315018
H     -0.966772   -2.380935   -1.655158
H     -0.516324   -3.235911   -0.161429
H      3.737963   -1.489275   -0.060191
H     -2.019643   -2.209922    1.172499
H     -2.897735   -2.162183   -0.365789
H      1.216026    1.924419   -0.208041
H     -2.345148    3.324074    0.567748
H     -2.151899    2.029870    1.763061
H     -1.945770    0.034718    1.388212
H     -1.361943    0.555166   -1.571887
H     -5.181851    1.980855   -0.950490
