16

C     -1.889968    0.355959   -0.530201
C      1.186679   -0.460058    1.565866
C     -0.988799    0.136159    0.655325
C      0.402293   -0.277913    0.265151
N      1.630794    0.419007   -1.734362
O      2.875870    0.275236   -1.832930
O      1.078771    0.687963   -0.490238
H     -2.410906   -0.590398   -0.788434
H     -2.639009    1.139042   -0.212820
H     -1.357171    0.733843   -1.424780
H      0.533431   -1.063698    2.227456
H      2.111670   -1.022755    1.423188
H      1.394068    0.544211    1.986910
H     -0.896049    1.067432    1.256031
H     -1.425037   -0.698482    1.248215
H      0.393362   -1.245545   -0.292713
