39

C      2.304642    0.456398    1.176726
C     -2.067369   -2.583113   -1.399998
C     -0.888102    2.309416   -0.583021
C      1.078034    1.432623   -1.527041
C     -0.875525    3.385834   -1.430505
C      1.101392    2.514695   -2.387948
C     -1.022266   -1.706008   -1.197831
C      1.286222   -0.486289    0.619707
C      3.634226   -0.188539    1.426290
C     -3.092922   -1.770350    0.547280
C     -4.230613   -3.550508   -0.731805
C     -1.767644    0.124546    1.806887
C     -3.130318   -2.632299   -0.524825
C     -2.042964   -0.877681    0.765204
C      0.078115    1.307091   -0.602382
C      0.138660    3.500368   -2.358283
C     -0.997123   -0.838878   -0.108161
C     -0.051754    0.185360    0.370893
F      0.196553    4.560517   -3.230216
N      3.602888   -1.275718    2.353939
N     -5.112519   -4.285804   -0.878748
O     -0.590405    0.692040    1.515756
H      1.918091    0.756508    2.196761
H      2.412816    1.386915    0.628792
H     -2.066987   -3.246263   -2.250517
H     -1.710842    2.256898    0.138125
H      1.842754    0.675605   -1.574888
H     -1.631563    4.168094   -1.412756
H      1.911234    2.603065   -3.126770
H     -0.208392   -1.696100   -1.903365
H      1.656911   -0.898769   -0.330936
H      1.085727   -1.351097    1.281328
H      4.293417    0.606838    1.880277
H      4.153175   -0.469675    0.477576
H     -3.900283   -1.771888    1.258135
H     -1.805191   -0.348772    2.832761
H     -2.637255    0.831117    1.826986
H      4.392106   -1.941208    2.093245
H      2.743073   -1.834968    2.363329
