45

C      5.228793   -0.154074   -1.023494
C     -3.472727    3.080411    0.874062
C     -3.161402    1.727755    0.954762
C     -2.739143   -5.060239   -0.010418
C     -1.536327   -4.829998    0.606547
C      2.595388    1.220369    1.109306
C      2.012049    0.391039   -1.143150
C      3.945965    0.583504    0.843374
C      3.271654    1.173009   -1.397281
C     -3.861877    2.794581   -1.469176
C     -3.824129    3.605545   -0.352948
C     -3.205210    0.941898   -0.165321
C     -3.058754   -2.756886   -0.151374
C     -1.866822   -2.484174    0.460451
C     -3.721981   -1.506170   -0.473344
C     -1.706956   -1.030422    0.555662
C      0.443810    0.071954    0.740705
Cl    -4.219361    5.314737   -0.459366
N     -3.489264   -4.031927   -0.383867
N     -1.121117   -3.562779    0.831094
N     -3.550561    1.483352   -1.342802
N      1.663913    0.554146    0.239163
N     -2.871990   -0.464869   -0.025371
N      4.354217    0.888295   -0.509667
O     -4.856322   -1.354546   -1.050521
O      0.154407    0.220364    1.979412
O      5.161503    1.996395   -0.399019
O     -0.504176   -0.577497   -0.042448
H      6.214802   -0.073782   -0.482469
H      5.444747    0.082056   -2.075205
H      4.818688   -1.168109   -0.892912
H     -3.436734    3.686772    1.749796
H     -2.887666    1.319106    1.914381
H     -3.129392   -6.057517   -0.219099
H     -0.940971   -5.688187    0.903051
H      2.350617    1.106511    2.183005
H      2.672424    2.314460    0.852469
H      1.236353    0.807441   -1.817099
H      2.226031   -0.674296   -1.355955
H      4.689275    0.916024    1.598095
H      3.814972   -0.523294    0.977121
H      3.079090    2.283901   -1.364201
H      3.635221    0.960954   -2.432614
H     -4.142511    3.246211   -2.408974
H     -1.708526   -0.772024    1.662474
