45

C     -5.899583    1.287973   -0.187533
C     -5.255047   -1.086759   -0.088202
C      2.871737   -2.601659   -1.747389
C      4.085901   -2.030030   -2.055258
C      1.913644   -1.877798   -1.090868
C      4.400218   -0.741168   -1.733467
C      1.506389    1.518204    0.273534
C      2.734092    2.038534   -0.057740
C     -3.267852   -0.329829    1.732681
C     -1.043611    0.228694    0.887488
C     -4.697415    0.326801   -0.118781
C     -2.110321   -0.878651    0.946286
C      2.196475   -0.550135   -0.742024
C      3.419294    0.004213   -1.059601
C      1.240591    0.207971   -0.075401
C      3.688042    1.321195   -0.709338
N     -3.961916    0.696435    1.039831
O     -1.458988   -1.904023    1.675897
O      6.114827    2.674908    1.340689
O      7.465257    2.257769   -0.840445
O      6.604297    0.346887    0.399525
O      0.047330   -0.412906    0.206087
O      4.932366    1.825719   -1.052848
S      6.292234    1.728589   -0.036903
H     -5.549174    2.170337   -0.751936
H     -6.175413    1.622248    0.844491
H     -6.720517    0.740470   -0.680474
H     -6.195736   -1.049618   -0.704431
H     -5.546216   -1.432303    0.904035
H     -4.593526   -1.770474   -0.622858
H      2.643558   -3.625493   -2.012038
H      4.832404   -2.629080   -2.579468
H      0.943164   -2.269159   -0.822106
H      5.341625   -0.266755   -1.961725
H      0.734249    2.075782    0.792868
H      2.947888    3.069839    0.214391
H     -3.931883   -1.162212    2.088581
H     -2.911052    0.132288    2.704285
H     -0.742712    0.513810    1.915939
H     -1.385318    1.112838    0.350384
H     -4.141601    0.437631   -1.052015
H     -2.348175   -1.256449   -0.038603
H     -3.312912    1.477935    0.825618
H     -1.903911   -2.754636    1.507295
H      6.197297    2.144014    2.171548
