29

C     -0.749445   -2.032854   -0.471003
C     -4.221494    1.433636   -0.180579
C     -3.018398    1.799977   -0.712219
C     -4.368265    0.311387    0.606337
C     -1.894076    1.019664   -0.457889
C     -3.241009   -0.436465    0.838384
C      4.207425    0.805722    0.998021
C     -0.835967   -0.997614    0.595841
C     -2.013935   -0.098465    0.318294
C      4.513507    0.759713   -0.431892
C      1.512245   -0.319037    0.725860
N      0.293316   -0.254380    0.810847
O      4.338303   -0.268598   -1.097514
O      5.012438    1.911543   -1.033799
S      2.352481   -1.768680    0.145665
S      2.456299    1.132412    1.231441
H     -1.506799   -2.851343   -0.276682
H     -1.093964   -1.580834   -1.436833
H      0.204756   -2.518582   -0.517104
H     -5.081727    2.058960   -0.394965
H     -2.907260    2.686351   -1.334002
H     -5.329360    0.030484    1.020223
H     -0.928269    1.301069   -0.872292
H     -3.333193   -1.320194    1.454178
H      4.429963   -0.206086    1.419706
H      4.847799    1.533029    1.569058
H     -1.094300   -1.568246    1.549366
H      4.865966    2.102103   -2.011295
H      2.582965   -2.664671    1.195138
