41

C     -5.795075    0.977428    0.123461
C     -5.268119   -1.290394   -0.704108
C      3.179380    0.337578   -1.061889
C      3.897896    0.103258    1.169067
C      1.869837    0.069613   -0.723153
C      2.624478   -0.168288    1.567120
C      5.610658    0.637339   -0.507378
C      6.246955   -0.722714   -0.797330
C     -2.920290    0.384743   -0.434024
C     -0.905740   -0.573598    0.591178
C     -5.079723   -0.281601    0.398513
C      4.206158    0.362189   -0.154157
C     -1.504803    0.664499   -0.029402
C      1.587901   -0.187782    0.616388
N     -3.663178   -0.142280    0.656455
O      7.590303   -0.559329   -1.140252
O     -1.556018    1.615908    1.010987
O      0.362260   -0.461693    1.090209
H     -5.176803    1.894819    0.204777
H     -6.309547    0.929860   -0.882557
H     -6.620425    1.106128    0.859647
H     -4.886043   -0.894668   -1.675295
H     -6.338205   -1.607728   -0.794898
H     -4.649038   -2.191412   -0.413104
H      3.395421    0.541181   -2.123365
H      4.681881    0.109965    1.941260
H      1.080335    0.050583   -1.469031
H      2.375600   -0.374148    2.618487
H      6.155388    1.049300    0.372323
H      5.694204    1.294371   -1.400630
H      5.724589   -1.265869   -1.597024
H      6.121646   -1.342042    0.125864
H     -3.405663    1.230466   -0.953448
H     -2.877418   -0.425417   -1.222706
H     -1.563987   -0.778691    1.511096
H     -1.099556   -1.463037   -0.054620
H     -5.501491   -0.760140    1.332509
H     -0.904057    1.080592   -0.870905
H     -3.323416   -1.111133    0.943994
H      8.046765   -0.284948   -0.293415
H     -1.103059    2.447089    0.715642
