34

C     -1.561748   -2.058705   -3.634119
C     -0.925554   -1.802455    3.484135
C      0.412098   -1.573024    3.513499
C     -1.767312   -0.888498    2.898359
C      0.976073   -0.398019    2.954636
C     -1.239887    0.290589    2.331991
C     -0.938344    0.270308   -3.102445
C      0.097165   -1.511898   -1.903705
C     -0.236247    1.217486   -2.433287
C      0.813947   -0.569426   -1.223465
C      1.033333    2.727540    2.818222
C     -0.795632   -1.060557   -2.867129
C      0.123730    0.470993    2.389813
C      0.676702    0.796763   -1.459503
C      0.623056    1.713307    1.749959
N      1.320867    3.441878    3.596824
N      1.792117    1.597933    0.973895
O      1.104932    3.341675   -0.797052
O      3.007098    1.985237   -1.382213
S      1.722664    1.938759   -0.674024
H     -1.622349   -1.816852   -4.682936
H     -2.594986   -2.104484   -3.222371
H     -1.130869   -3.092857   -3.452001
H     -1.374763   -2.723856    3.921241
H      1.124309   -2.266429    3.972474
H     -2.833174   -1.046065    2.874266
H      2.069884   -0.292304    3.028280
H     -1.891465    0.990978    1.877017
H     -1.643557    0.620137   -3.877689
H      0.234272   -2.576436   -1.716269
H     -0.361109    2.264728   -2.628608
H      1.530364   -0.855745   -0.456236
H     -0.152139    2.171374    1.115919
H      2.406527    0.797924    1.221482
