25

C     -3.841922   -0.503803    0.664169
C      3.151952   -0.905108    1.153836
C      2.804223   -1.412445   -0.077620
C      2.333102    0.009452    1.773990
C      1.658231   -1.037564   -0.719936
C      1.152117    0.414122    1.142485
C      0.834518   -0.114328   -0.090505
C     -1.588576    0.296808    0.090566
C     -0.399089    0.297723   -0.782145
C     -0.210022    1.699958   -1.373841
F      0.069564    2.604291   -0.370304
F     -1.321640    2.054342   -2.105786
F      0.874523    1.705718   -2.228946
O     -1.669918    1.009642    1.113625
O     -0.660294   -0.579920   -1.845323
O     -2.709983   -0.509455   -0.175064
H     -3.576351   -0.454465    1.725499
H     -4.418510   -1.431032    0.458740
H     -4.426172    0.407967    0.418878
H      4.075275   -1.209687    1.667251
H      3.444009   -2.131509   -0.569835
H      2.572770    0.426148    2.734590
H      1.390957   -1.430753   -1.671911
H      0.549645    1.136471    1.673099
H     -0.088408   -0.342572   -2.605513
