52

C     -7.892893    0.198843   -1.264340
C     -6.650613    0.006567   -0.365867
C     -6.147157    1.364784   -0.046645
C      2.808473   -1.548602    0.409865
C      2.743475   -0.334190   -0.484592
C      1.369359   -2.033486    0.697820
C      4.116755    0.201128   -0.810705
C      0.692236   -0.938363    1.347941
C      4.885997    0.611789    0.398048
C     -4.965067    1.500835    0.814911
C     -0.387385   -0.357642    0.858174
C      6.241440    1.139206   -0.007853
C     -3.662080    0.942543    0.377848
C     -0.984030   -0.776408   -0.382634
C      7.076045    0.118597   -0.747921
C     -3.574977   -0.508148    0.133442
C     -2.377613   -1.271204   -0.301887
C      8.356992    0.759452   -1.075669
O      9.240092    0.863336   -0.198773
O      8.597202    1.248295   -2.340139
O     -3.368035   -0.948837   -1.186313
H     -7.565254    0.437428   -2.304699
H     -8.563483    0.950505   -0.838571
H     -8.382079   -0.795665   -1.315707
H     -5.955324   -0.689868   -0.813956
H     -7.067883   -0.514935    0.545589
H     -6.021194    1.986076   -0.976540
H     -7.008773    1.893783    0.480645
H      3.315434   -1.241284    1.346284
H      3.353444   -2.381260   -0.025724
H      2.145060    0.475167   -0.021756
H      2.226537   -0.624692   -1.421129
H      1.026199   -2.422755   -0.240207
H      1.450770   -2.931358    1.398083
H      4.658558   -0.598378   -1.354710
H      4.036987    1.082363   -1.477909
H      1.129655   -0.587919    2.313879
H      5.089855   -0.255326    1.086619
H      4.368164    1.437060    0.921304
H     -4.855505    2.612102    1.045975
H     -5.207361    1.092986    1.855369
H     -0.822236    0.483419    1.434322
H      6.180455    2.078528   -0.594756
H      6.793312    1.333376    0.957759
H     -2.902731    1.210834    1.177334
H     -3.352273    1.509031   -0.534953
H     -1.012899    0.179440   -1.037569
H     -0.414589   -1.459726   -1.037627
H      7.256250   -0.751454   -0.065305
H      6.623530   -0.229959   -1.686665
H     -4.258999   -1.108457    0.796400
H     -2.381841   -2.407555   -0.054368
