39

C      1.127822    1.118541    1.355356
C     -3.537757    0.079145   -1.748942
C     -3.811807    1.572419    0.168193
C      5.571881   -0.067168   -0.637742
C      5.215534   -0.714310    0.532687
C      4.571921    0.535573   -1.361142
C      3.896144   -0.745231    0.947218
C      3.263360    0.499709   -0.941402
C     -1.316608   -1.849199   -0.025169
C     -1.629641    0.542455   -0.187946
C     -3.522507   -0.803497    0.603888
C      1.477018   -0.194295    0.699278
C      2.884441   -0.144580    0.230518
C     -0.795353   -0.657943   -0.201875
C     -2.744025   -1.994016    0.188803
C     -3.095160    0.318330   -0.339702
N      0.601470   -0.513908   -0.411999
O     -3.308650   -3.095661    0.027970
H      0.775830    1.851981    0.607256
H      0.460892    0.995941    2.219799
H      2.077484    1.565346    1.773416
H     -4.539622    0.537103   -1.952616
H     -2.831178    0.591245   -2.448769
H     -3.635569   -1.002238   -1.985064
H     -3.705394    1.590784    1.291314
H     -4.873650    1.587907   -0.142459
H     -3.262221    2.452436   -0.216172
H      6.620408   -0.044014   -0.964811
H      6.019966   -1.185040    1.091202
H      4.816697    1.045991   -2.274319
H      3.623276   -1.253935    1.865252
H      2.446254    0.972426   -1.499705
H     -0.699298   -2.762793   -0.033180
H     -1.474340    1.042525    0.802200
H     -1.256205    1.222356   -0.997887
H     -4.599752   -0.961359    0.598857
H     -3.154815   -0.511610    1.610699
H      1.356017   -0.980604    1.465598
H      0.987139   -0.640810   -1.373325
