32

C      3.084470   -1.920511    0.888980
C     -0.809795    0.617886   -2.352465
C     -3.508671   -1.332785    1.500523
C     -2.899905   -1.883916    0.367284
C     -3.140938   -0.041254    1.799176
C     -1.993608   -1.204459   -0.411486
C     -2.234427    0.648219    1.026409
C      3.335983    0.479034    0.474063
C      2.844129    1.676553    0.071112
C      1.201423   -0.509815   -0.002631
C      2.498612   -0.629850    0.435104
C     -0.682933    0.890662   -0.869269
C     -1.650395    0.079661   -0.084537
C      0.698163    0.732660   -0.417921
C      1.522652    1.828639   -0.381202
O      1.196993    3.114979   -0.751951
H      2.407068   -2.766219    0.760007
H      4.003933   -2.106487    0.256834
H      3.498021   -1.828600    1.931787
H     -1.035563    1.545905   -2.923731
H      0.115635    0.207503   -2.801347
H     -1.630172   -0.092231   -2.575065
H     -4.220912   -1.880970    2.103758
H     -3.197646   -2.902474    0.142022
H     -3.599707    0.406517    2.672662
H     -1.536058   -1.659425   -1.285873
H     -2.001610    1.673541    1.341406
H      4.371499    0.403933    0.819792
H      3.516675    2.530427    0.109416
H      0.544933   -1.365754   -0.036567
H     -0.990947    1.952679   -0.707373
H      0.293098    3.335953   -1.098914
