56

C     -6.696991    1.295579    1.680443
C     -6.779605   -0.129515    1.304828
C     -5.503174   -0.729640    0.816614
C     -4.886360   -0.156277   -0.385088
C      2.135826   -1.861297   -0.368454
C      2.244547   -1.498889   -1.811978
C      3.288015   -1.267236    0.441513
C      2.187880   -0.027692   -2.008737
C      4.610831   -1.740232   -0.035675
C      0.911090    0.634393   -1.715245
C      5.717224   -1.150501    0.788208
C     -4.363132    1.216727   -0.394355
C     -0.240110    0.078446   -1.384190
C      5.709334    0.353245    0.694871
C     -3.226309    1.518782    0.525932
C     -1.470799    0.886982   -1.104911
C      6.867420    0.925653    1.537197
C     -1.985250    0.676244    0.273128
O      6.856745    2.307627    1.448788
O     -2.186093   -0.648417    0.604644
H     -5.703832    1.577108    2.002719
H     -7.392827    1.501602    2.564891
H     -7.145220    1.920334    0.871484
H     -7.151612   -0.780841    2.148459
H     -7.514237   -0.234288    0.448537
H     -5.768980   -1.807943    0.548660
H     -4.786399   -0.877844    1.668744
H     -5.688211   -0.189683   -1.199792
H     -4.105919   -0.848897   -0.816074
H      1.191317   -1.538473    0.062091
H      2.144574   -2.980577   -0.284160
H      3.148698   -1.938712   -2.297547
H      1.373747   -1.968759   -2.341169
H      3.144301   -1.670204    1.480058
H      3.114757   -0.201634    0.489993
H      2.540669    0.235571   -3.067197
H      2.966091    0.511552   -1.386608
H      4.822549   -1.481153   -1.096513
H      4.609391   -2.851391   -0.009816
H      0.841766    1.755546   -1.761185
H      6.690653   -1.473246    0.313171
H      5.685312   -1.497998    1.846023
H     -5.112565    2.030305   -0.267548
H     -3.976043    1.403654   -1.445590
H     -0.338160   -0.991925   -1.344488
H      4.742179    0.730474    1.102876
H      5.903238    0.712778   -0.332572
H     -3.454327    1.596033    1.586604
H     -2.893460    2.569173    0.238055
H     -2.238827    0.531461   -1.842371
H     -1.320355    1.968625   -1.274824
H      6.755328    0.642646    2.583113
H      7.790362    0.555967    1.060787
H     -1.222038    1.072676    1.006299
H      7.035632    2.634575    0.526819
H     -1.878640   -1.300494   -0.049604
