29

C      3.909984    0.178778   -0.071566
C     -2.561405   -1.100692   -0.635323
C      1.833374   -1.146138   -0.276944
C      1.631257    1.171191    0.438964
C      0.370457   -1.404191   -0.218337
C      0.385110    0.590055    1.132493
C     -2.478379    1.034434    0.515919
C      2.427244   -0.005355    0.011101
C     -1.789888   -0.311433    0.418947
C     -0.367802   -0.097238    0.016834
O     -3.828883    0.868708    0.891208
H      4.316651    0.576722    0.879634
H      4.393665   -0.794087   -0.265671
H      4.108474    0.928610   -0.852757
H     -3.418787   -1.645254   -0.151487
H     -3.025242   -0.418833   -1.380325
H     -1.944267   -1.819647   -1.169542
H      2.474428   -1.980942   -0.587923
H      2.175742    1.846856    1.109212
H      1.274872    1.721954   -0.444407
H      0.192014   -2.146399    0.566855
H      0.093679   -1.795744   -1.241184
H      0.782682   -0.211116    1.823349
H     -0.149914    1.342682    1.688385
H     -2.414893    1.491209   -0.495628
H     -1.983042    1.683999    1.235901
H     -1.877751   -0.831451    1.375025
H     -0.280119    0.506562   -0.900375
H     -4.249262    1.766759    0.697138
