27

C     -3.012923   -0.591047    1.139653
C      3.063549   -2.438085   -0.047255
C     -3.234111    0.852981    0.739520
C      2.822572   -0.957683    0.144158
C     -0.517864    2.027729   -0.945965
C      0.730973    1.262013   -1.409185
C     -1.026643    1.035503    0.079258
C      1.157791    0.624501   -0.106324
O     -2.040811    1.513662    0.852292
O      1.499604   -0.703622   -0.237425
O      0.120754    0.738532    0.780523
H     -2.927100   -1.168586    0.196585
H     -2.110049   -0.660995    1.777660
H     -3.864255   -0.925910    1.764848
H      3.326459   -2.624112   -1.107367
H      2.152297   -2.988623    0.239295
H      3.910036   -2.714004    0.633447
H     -3.710199    0.951823   -0.257157
H     -3.947745    1.329109    1.464710
H      2.976027   -0.673317    1.221460
H      3.497207   -0.343596   -0.498681
H     -0.143494    2.954902   -0.485361
H     -1.207103    2.200818   -1.770602
H      1.478452    1.922056   -1.842845
H      0.390169    0.455343   -2.103285
H     -1.419014    0.164647   -0.504052
H      2.035418    1.200026    0.282097
