28

C      3.921245    0.598561   -0.620006
C     -3.298171    1.408057   -0.191642
C     -1.889945   -1.064129   -0.681244
C      2.975481   -0.529605   -0.248644
C     -2.468593    0.777869    0.915001
C      1.679821    0.072188    0.305834
C      0.763589   -1.054362    0.702961
C     -1.358088    0.015676    0.249181
N     -0.484459   -0.532003    1.243761
H      4.454459    0.346695   -1.550549
H      4.668792    0.795907    0.175402
H      3.363694    1.530841   -0.779937
H     -2.836185    1.225950   -1.206115
H     -4.328595    0.987756   -0.169481
H     -3.298353    2.497886   -0.032458
H     -3.006510   -1.137747   -0.565937
H     -1.452694   -2.064987   -0.441607
H     -1.702680   -0.849720   -1.751710
H      3.465510   -1.214719    0.459961
H      2.763970   -1.083532   -1.185622
H     -1.996365    1.576136    1.549756
H     -3.130604    0.161712    1.547801
H      1.945746    0.707698    1.193839
H      1.266913    0.747735   -0.439343
H      0.526102   -1.656390   -0.213352
H      1.230854   -1.685609    1.460433
H     -0.808343    0.730335   -0.408800
H     -0.966593   -1.308198    1.753284
