32

C      3.107030   -1.131374    0.768154
C     -3.417677   -0.091092    0.151394
C      2.047910   -1.999288    0.992058
C     -2.834827   -1.437285   -0.187582
C      1.712300    0.450261   -0.257728
C     -1.439793    0.887026   -1.055328
C      2.984991    0.084291    0.156183
C     -2.870838    1.026537   -0.687161
C      0.605136   -0.357469   -0.071927
C     -0.736971   -0.209155   -0.393219
C      0.793319   -1.573219    0.552381
C     -1.358106   -1.348576    0.043701
C      4.109857    0.969869   -0.064053
N     -3.124995    2.269605    0.059284
N      5.325731    0.738791    0.273904
N     -0.433570   -2.145148    0.601640
O      3.891703    2.202115   -0.701896
H      4.099815   -1.461575    1.112695
H     -4.519599   -0.173036    0.048586
H     -3.221747    0.080054    1.237735
H      2.135980   -2.947966    1.468295
H     -3.227664   -2.161407    0.549390
H     -3.081182   -1.707166   -1.220846
H      1.607801    1.423690   -0.749016
H     -0.937851    1.871268   -0.817251
H     -1.364128    0.828033   -2.181213
H     -3.518835    1.102244   -1.590463
H     -3.448203    2.094078    1.013180
H     -2.380768    2.960184   -0.061440
H      5.588134   -0.145877    0.751503
H     -0.624205   -3.076085    1.017494
H      4.531251    2.977675   -0.511019
