56

C      5.557106    3.297024    1.496706
C     -4.401156    4.330593    0.753142
C     -2.658168   -4.998704   -0.231583
C      4.573494    2.594664    2.170584
C      5.769995    2.985623    0.172156
C     -4.314969    3.043461    1.227263
C     -3.403844    4.751891   -0.104704
C     -1.166123   -4.961740   -0.260659
C     -3.163525   -3.765641    0.506216
C      3.835806    1.624066    1.546786
C      5.033023    2.008517   -0.470582
C     -3.285656    2.188382    0.876578
C     -2.371357    3.918851   -0.466812
C     -0.597825   -3.665066   -0.806584
C     -2.709585   -2.584452   -0.303960
C     -0.656316   -1.367641    0.031805
C      1.291184   -1.233332   -1.597041
C      4.064681    1.333803    0.234914
C     -2.292925    2.626117    0.015149
C      0.157357   -0.561412   -0.915497
C      3.036176   -0.814743    0.046296
C     -0.184850    1.522871    0.342076
N      3.331716    0.332789   -0.474891
N     -1.255732    1.740173   -0.331375
N     -1.300536   -2.518292   -0.435750
O      3.431833   -1.130678    1.359203
O      0.078690    2.167911    1.541902
O      2.321574   -1.691368   -0.755657
O      0.694091    0.587468   -0.226867
H      6.128403    4.058963    2.003654
H     -5.221933    4.994270    1.040120
H     -3.019213   -4.941401   -1.276397
H     -2.958832   -5.941834    0.266740
H      4.413580    2.850695    3.225234
H      6.537881    3.520276   -0.389298
H     -5.080532    2.676740    1.903616
H     -3.471489    5.762698   -0.477866
H     -0.700645   -5.181120    0.734938
H     -0.810116   -5.775435   -0.924180
H     -2.668828   -3.753964    1.516234
H     -4.248667   -3.824984    0.587072
H      3.071284    1.095493    2.111292
H      5.234175    1.790952   -1.529713
H     -3.240192    1.162883    1.269979
H     -1.583220    4.241603   -1.140684
H     -0.674608   -3.783189   -1.928397
H      0.453876   -3.647336   -0.479731
H     -3.177874   -2.677803   -1.308772
H     -3.069512   -1.673130    0.215239
H     -0.014943   -1.557618    0.952448
H     -1.450666   -0.665917    0.445306
H      0.923970   -2.087646   -2.190036
H      1.688372   -0.486718   -2.344894
H     -0.477630   -0.109191   -1.733342
H      4.371627   -0.852017    1.617586
H     -0.368424    3.043597    1.747599
