26

C      3.720509    0.221566   -0.504678
C      2.609080    0.220609    0.507699
C     -3.802544    0.031897   -0.496916
C     -3.190939    1.250913   -0.288601
C     -3.103552   -1.115215   -0.236089
C     -1.883308    1.318002    0.179524
C     -1.805487   -1.035286    0.228491
C      0.215476    0.194724    0.941908
C     -1.169928    0.169516    0.445525
C      1.240555    0.193259   -0.162395
N      1.172226   -1.048090   -0.910321
H      3.414496    0.820512   -1.373260
H      4.643524    0.547394   -0.021221
H      3.880901   -0.825304   -0.842534
H      2.624512    1.079032    1.185680
H      2.663935   -0.738945    1.096968
H     -4.804603   -0.058171   -0.855309
H     -3.762046    2.142963   -0.501314
H     -3.526959   -2.106749   -0.378994
H     -1.420850    2.266455    0.336809
H     -1.270211   -1.953883    0.428593
H      0.422436   -0.695082    1.582002
H      0.408065    1.079418    1.594279
H      1.111598    1.046953   -0.856805
H      0.216344   -1.143053   -1.279208
H      1.396771   -1.863436   -0.330716
