21

C     -2.532853   -0.736692    0.240935
C     -1.091845    1.705070    0.150517
C      3.348622   -0.068359   -0.012313
C     -1.091516   -0.673621    0.643735
C     -0.370811    0.407169   -0.172351
C      1.935625   -0.227203   -0.434318
N      1.021493    0.464646    0.138098
O      1.601904   -1.123796   -1.448023
H     -2.618590   -0.505658   -0.849406
H     -2.881875   -1.795949    0.368862
H     -3.186566   -0.064417    0.833130
H     -2.178042    1.538080    0.045736
H     -0.820150    2.524999   -0.531563
H     -0.846932    1.926616    1.219580
H      4.004223   -0.592947   -0.717937
H      3.516484   -0.442009    1.030223
H      3.636277    1.010586   -0.040543
H     -1.031103   -0.364815    1.720227
H     -0.577948   -1.633563    0.553084
H     -0.525173    0.185307   -1.253578
H      0.688778   -1.533442   -1.484094
