37

C     -3.278300    1.206067   -3.327673
C     -2.753197    1.263419   -1.944905
C     -3.729091   -1.751853    2.578814
C     -2.757457   -2.383244    1.848236
C     -3.960167   -0.382436    2.479522
C     -1.862743    0.390237   -1.469916
C     -1.958462   -1.678466    0.973371
C     -3.148901    0.299489    1.598759
C      2.728894   -0.672761    0.060521
C      3.449568    1.456492    0.717027
C      4.020086   -1.147341    0.067736
C      4.756661    1.018183    0.735805
C     -2.167549   -0.321934    0.857229
C      2.402090    0.624848    0.379599
C      5.056768   -0.306895    0.406419
C     -1.352642    0.482458   -0.056306
C      1.009291    1.068261    0.353135
N      6.404746   -0.756099    0.426549
O      0.689791    2.242395    0.639308
O      7.412096    0.102381    0.767061
O      6.628583   -1.943891    0.126487
O      0.023319    0.187619    0.008880
H     -4.387846    1.200391   -3.257044
H     -2.911461    0.282066   -3.809020
H     -2.911925    2.072531   -3.903605
H     -3.081932    2.034950   -1.254803
H     -4.368121   -2.283364    3.271325
H     -2.588451   -3.451422    1.935760
H     -4.729502    0.111233    3.059384
H     -1.525747   -0.385603   -2.148311
H     -1.185782   -2.185381    0.393470
H     -3.333679    1.381301    1.522320
H      1.904408   -1.330640   -0.205983
H      3.183778    2.480050    0.967883
H      4.219015   -2.175994   -0.191547
H      5.557169    1.702775    1.007027
H     -1.453308    1.550180    0.223984
