37

C     -2.439076    3.966420    0.849353
C     -1.954314    2.947012   -0.114155
C     -4.027408   -2.740059   -0.001726
C     -4.438197   -1.474833    0.329317
C     -2.771240   -2.943473   -0.522736
C     -1.863352    1.699302    0.290600
C     -3.579775   -0.413215    0.134198
C     -1.935869   -1.869403   -0.707127
C      3.409020   -0.037903   -1.243923
C      2.464432   -0.493783    0.861226
C      4.673450   -0.392023   -0.768805
C      3.722264   -0.852441    1.355671
C     -2.301619   -0.570670   -0.389295
C      2.312410   -0.086958   -0.439725
C      4.820467   -0.796523    0.527118
C     -1.387489    0.587161   -0.593446
C      1.005836    0.283060   -0.944470
N      6.112584   -1.153523    0.996095
O      0.805551    0.663909   -2.128169
O      6.260328   -1.557388    2.289765
O      7.107715   -1.107201    0.259854
O     -0.097961    0.227780   -0.115226
H     -2.526474    4.968816    0.356668
H     -1.729942    4.046121    1.684571
H     -3.454259    3.705405    1.250232
H     -1.670608    3.177626   -1.136581
H     -4.686526   -3.605799    0.141308
H     -5.436023   -1.366423    0.736048
H     -2.400253   -3.916607   -0.798984
H     -2.136066    1.441693    1.293282
H     -3.894441    0.570731    0.389761
H     -0.942517   -2.005973   -1.115869
H      3.296244    0.277864   -2.256688
H      1.634587   -0.551803    1.541166
H      5.542392   -0.346429   -1.428990
H      3.870577   -1.175232    2.371796
H     -1.364450    0.894760   -1.656471
