38

C     -2.640930    2.363003    0.079507
C     -1.714638   -2.546663   -0.398297
C     -0.630170   -2.587786   -1.426753
C      3.467185    0.498143    1.464083
C     -2.143774   -1.193122    0.018237
C      2.328866   -0.220641    1.219496
C      3.760251    1.558800    0.635971
C      0.268775   -1.408102   -1.441109
C      1.749679    1.113068   -0.634614
C     -1.244326    0.777489    1.263238
C      1.438165    0.035769    0.193422
C     -1.071795   -0.135691    0.089259
C      2.890084    1.840705   -0.397457
C      0.253859   -0.800813   -0.020907
N     -2.532741    1.427227    1.156568
O      3.230446    2.932144   -1.219685
O      0.369086   -1.913337    0.832835
H     -2.614437    1.927983   -0.919498
H     -1.910194    3.188626    0.179718
H     -3.662561    2.838492    0.196109
H     -2.609574   -3.045637   -0.877877
H     -1.511306   -3.227166    0.480145
H      0.014491   -3.488285   -1.236039
H     -1.030544   -2.743353   -2.459699
H      4.114386    0.236104    2.286042
H     -2.563293   -1.281738    1.064277
H     -3.005305   -0.830239   -0.592646
H      2.091276   -1.061566    1.872869
H      4.670174    2.150146    0.806025
H      1.298100   -1.591920   -1.773482
H     -0.171985   -0.627301   -2.093173
H      1.071883    1.346762   -1.452043
H     -0.481419    1.575065    1.208904
H     -1.142502    0.272760    2.240156
H     -1.193596    0.491047   -0.833940
H     -3.234938    0.654927    0.947093
H      2.903713    3.867712   -0.984059
H      1.189605   -2.392615    0.527324
