38

C     -2.709488    1.076796    2.244462
C     -4.699795    0.760269    0.777976
C      4.093554   -1.711517    0.614863
C      3.525896   -2.438977    1.647624
C      3.070935    1.078339   -3.262358
C      1.793441    1.416324   -3.701986
C      3.718443   -0.341343   -1.292664
C     -0.984344    0.364757    0.031491
C      3.240816   -1.077425   -0.250202
C      2.874927    0.294238   -2.160036
C     -2.476018    0.053766    0.026639
C      2.144353   -2.491874    1.757680
C      1.510497    0.176023   -1.959033
C      1.876874   -1.191156   -0.055474
C      1.001759   -0.556880   -0.920202
C     -3.233270    1.114899    0.816020
O     -2.711121   -1.209059    0.548960
O      1.684478   -3.178064    2.729884
O     -2.989529    2.359948    0.285618
O      0.930371    0.858288   -2.898603
O     -0.370193   -0.634742   -0.775445
O      1.347559   -1.882531    0.925788
H     -3.367002    1.731235    2.877686
H     -2.679786    0.039640    2.608216
H     -1.697531    1.510112    2.285498
H     -4.831426   -0.347560    0.625734
H     -5.114366    1.239718   -0.147083
H     -5.246843    1.039904    1.687046
H      5.170816   -1.642209    0.489808
H      4.158138   -2.954765    2.352964
H      3.999738    1.391538   -3.724826
H      1.519161    2.027353   -4.549850
H      4.793548   -0.259875   -1.434732
H     -0.823924    1.351150   -0.448450
H     -0.596040    0.294725    1.053970
H     -2.849618    0.050995   -1.023026
H     -2.024755   -1.411781    1.249599
H     -3.050258    3.099739    0.966441
