40

C      6.527787    0.357568    1.077809
C      2.050604   -1.985862   -2.145966
C      5.991334    1.751509    1.014056
C      1.929374   -1.132807   -0.905623
C     -6.298844   -1.932480    0.543747
C     -6.837023    0.340320    0.067167
C     -4.955205   -1.622962    0.479845
C     -5.502875    0.623871    0.008697
C      4.631420    1.837816    0.357356
C     -1.355912    0.859404   -0.734617
C     -2.172510   -0.182213    1.017461
C     -7.235762   -0.943636    0.335904
C     -4.539977   -0.337848    0.210881
C     -0.984203    0.345898    0.497555
Cl    -8.951594   -1.269609    0.403005
N     -2.663065    0.650445   -0.927141
N     -3.171563    0.014411    0.138023
O      1.269772    2.502413   -0.079382
O      1.675441    0.196253   -1.239188
O      0.264709    0.339701    1.104528
P      1.558125    1.063871    0.231696
S      3.383430    0.864789    1.229777
H      6.295322   -0.064116    2.075276
H      7.643003    0.387653    0.921239
H      6.080977   -0.258398    0.261922
H      2.299027   -1.343449   -3.017348
H      2.844121   -2.746326   -2.051927
H      1.106825   -2.556129   -2.347387
H      5.938140    2.238966    2.009823
H      6.680771    2.360353    0.405176
H      1.177364   -1.555123   -0.223715
H      2.909572   -1.203313   -0.358096
H     -6.667095   -2.935856    0.753715
H     -7.586418    1.126693   -0.098126
H     -4.231596   -2.435137    0.650514
H     -5.231635    1.670944   -0.210485
H      4.353205    2.900872    0.323169
H      4.721250    1.390261   -0.672236
H     -0.666879    1.347943   -1.410772
H     -2.279419   -0.666687    1.962225
