29

C      5.059700    0.419151   -0.011034
C     -4.341681    0.078643    0.527345
C     -3.778051   -1.071299    0.019252
C     -3.686870    1.276201    0.350311
C     -2.575511   -1.024260   -0.656924
C     -2.487516    1.307097   -0.326586
C     -0.618507    0.295173   -1.550101
C      0.568006   -1.148146   -0.200344
C     -1.909908    0.163899   -0.841430
C      1.346447   -0.094308    0.547183
C      2.598776    0.279676   -0.135413
O      1.655728   -0.586620    1.813661
O      2.633969    0.756714   -1.302968
O      3.800694    0.111596    0.506751
O      0.195047   -0.807538   -1.469713
H      5.750387    0.541271    0.872128
H      5.475793   -0.417981   -0.596698
H      5.095545    1.348944   -0.577311
H     -5.286448    0.009100    1.053295
H     -4.270291   -2.027609    0.143188
H     -4.120010    2.189729    0.745528
H     -2.143198   -1.941300   -1.056619
H     -2.018014    2.284588   -0.434142
H     -0.840143    0.561948   -2.625186
H     -0.074871    1.156277   -1.085237
H      1.113240   -2.103376   -0.131920
H     -0.371921   -1.312637    0.402656
H      0.699758    0.810207    0.749100
H      2.529852   -1.055141    1.819800
