29

C     -4.818768    0.071461   -1.063611
C      4.315626   -0.813426    0.762613
C      3.782728    0.425113    1.044631
C      3.718325   -1.641202   -0.147179
C      2.631978    0.821139    0.393161
C      2.573385   -1.214808   -0.777454
C      0.768791    0.447863   -1.222796
C     -0.509551    0.631624    0.701025
C      1.994819    0.018829   -0.532695
C     -1.835553    0.153457    1.274535
C     -2.949479    0.570763    0.390746
O     -1.824225   -1.235182    1.316926
O     -3.172314    1.789597    0.186744
O     -3.769677   -0.348136   -0.230620
O     -0.394239    0.101733   -0.564523
H     -4.548271    0.120039   -2.131503
H     -5.104978    1.099112   -0.729617
H     -5.689673   -0.596618   -0.897042
H      5.212585   -1.122998    1.269931
H      4.273603    1.045930    1.759426
H      4.163411   -2.607684   -0.345135
H      2.239327    1.799063    0.637109
H      2.096086   -1.855055   -1.492713
H      0.719741   -0.037076   -2.228762
H      0.812548    1.550358   -1.420693
H      0.285281    0.177999    1.328142
H     -0.467898    1.724842    0.747309
H     -1.978244    0.540605    2.313895
H     -2.525365   -1.617341    1.877914
