35

C     -2.540833   -1.360820    0.881732
C     -1.677214   -2.333231    0.160205
C      2.703840    0.813569   -1.992474
C     -2.615217   -0.000856    0.301537
C      1.387923    0.548735   -1.612493
C      3.743373    0.536247   -1.146803
C     -0.484164   -1.775574   -0.500651
C      2.179923   -0.265922    0.451324
C     -1.228119    1.946912   -0.155217
C      1.105597    0.001101   -0.376888
C     -1.367957    0.475233   -0.416664
C      3.485457   -0.009763    0.091129
C     -0.226407   -0.363232    0.099277
N     -1.103799    2.273949    1.244425
O      4.523210   -0.301431    0.963938
O     -0.220974   -0.430878    1.474550
H     -3.586425   -1.795008    0.833599
H     -2.330197   -1.344169    1.998325
H     -1.334137   -3.109578    0.916526
H     -2.263190   -2.930116   -0.575910
H      2.932865    1.251034   -2.974011
H     -3.485383    0.078073   -0.414928
H     -2.846986    0.717103    1.119217
H      0.586386    0.785297   -2.303388
H      4.764993    0.739298   -1.428625
H     -0.696579   -1.586422   -1.561059
H      0.445248   -2.354165   -0.388394
H      2.038021   -0.698788    1.455734
H     -2.208008    2.400379   -0.509007
H     -0.466643    2.425790   -0.800067
H     -1.452652    0.328224   -1.507681
H     -0.336856    2.995413    1.331792
H     -1.962769    2.657324    1.659529
H      4.315823   -0.702363    1.852376
H      0.221848    0.388636    1.829047
