30

C     -1.283572    1.887814   -0.145507
C     -0.883018    0.173775   -1.914195
C     -2.230844   -0.996657    0.407012
C      0.918128    0.769421    1.257305
C     -0.396450    0.135494    1.710719
C      0.926758    0.699047   -0.254755
C      1.310409   -0.710755   -0.627743
C      0.179953   -1.480979   -0.039188
C      2.613343   -1.120697   -0.112446
C     -0.572761    0.646222   -0.537231
C     -0.854039   -0.519281    0.428873
O      0.130861   -2.685468    0.035753
O      2.669598   -2.111143    0.658479
O      3.810272   -0.494836   -0.410602
H     -2.234586    1.720033    0.392995
H     -1.510637    2.473437   -1.072659
H     -0.577398    2.528045    0.441947
H     -0.329861    0.709565   -2.717169
H     -0.770310   -0.940106   -2.013526
H     -1.958761    0.375402   -2.099284
H     -2.966784   -0.208502    0.108189
H     -2.510096   -1.391768    1.413300
H     -2.334213   -1.844468   -0.314458
H      1.008158    1.808823    1.619388
H      1.721305    0.154828    1.712986
H     -1.092790    0.967289    1.950647
H     -0.249551   -0.575324    2.530840
H      1.451758    1.483797   -0.757072
H      1.336787   -0.771209   -1.732852
H      4.678341   -0.681800    0.080254
