37

C     -2.655599   -2.195895   -0.465980
C     -2.291122   -1.032510    1.659921
C     -1.159684    2.103341   -1.432431
C     -1.179774    1.848801    0.993458
C      5.246795   -0.634524    0.765017
C     -0.450089   -1.207938   -0.012989
C      1.234640    0.518611    0.267794
C     -0.020607    0.160094   -0.477834
C     -1.927235   -1.034857    0.199643
C     -1.148299    1.096633   -0.291270
N     -2.300747    0.213331   -0.463221
O     -2.328969   -0.078583   -1.795346
O      4.573899   -0.290856   -1.870149
O      4.537037    1.594064   -0.407720
S      2.457198   -0.641000   -0.152195
S      4.310971    0.143406   -0.488073
H     -1.957168   -2.782862   -1.096823
H     -3.504050   -1.802961   -1.069146
H     -3.107557   -2.881675    0.288610
H     -1.394839   -0.916451    2.319633
H     -2.728335   -2.018767    1.944458
H     -3.045147   -0.255816    1.870090
H     -2.195032    2.448792   -1.667208
H     -0.595297    2.987012   -1.096904
H     -0.662857    1.671108   -2.316277
H     -2.249484    2.106648    1.201452
H     -0.668230    2.818799    0.845863
H     -0.734895    1.338575    1.853437
H      5.034555   -1.712733    0.904714
H      6.328742   -0.463636    0.533003
H      5.018377   -0.142862    1.723382
H     -0.261186   -1.979423   -0.781229
H      0.068199   -1.491464    0.930944
H      1.077169    0.540936    1.376741
H      1.516372    1.547940   -0.013394
H      0.269914    0.091283   -1.556570
H     -3.107666    0.335439   -2.223399
