27

C     -1.166176   -1.967269    0.702816
C     -3.648183    1.593429    0.766193
C      0.928866    0.920989   -0.453209
C      1.529164   -1.178589    0.411800
C      2.242048    1.347328   -0.375570
C      2.852074   -0.778578    0.500676
C     -0.879830   -0.761338   -0.164188
C     -2.944924    0.421444    0.185243
C      0.552944   -0.348829   -0.060480
C      3.205730    0.486720    0.105651
N      4.563767    0.948054    0.178590
N     -1.667440    0.333997    0.355984
O     -3.581569   -0.576233   -0.525191
H     -2.239532   -2.212127    0.560641
H     -1.041860   -1.695507    1.760732
H     -0.596436   -2.857825    0.395732
H     -3.496428    1.591644    1.866278
H     -3.246038    2.521608    0.322758
H     -4.727023    1.513284    0.539617
H      0.181019    1.590742   -0.827350
H      1.299810   -2.170792    0.730044
H      2.469498    2.367926   -0.704397
H      3.637508   -1.425487    0.873166
H     -1.116478   -0.922087   -1.215217
H      5.015580    1.162586   -0.735005
H      5.025107    1.046074    1.105134
H     -3.151196   -0.951166   -1.359428
