42

C      5.586819   -1.816728   -1.430013
C     -0.220999    1.886988    1.583424
C      5.393741   -0.403138   -0.877553
C      2.456719    0.869495    1.027082
C      1.308118    0.531770    0.134745
C     -4.557954   -0.630910   -2.183607
C     -3.428564   -0.355680   -1.423546
C     -2.463407   -0.010882    2.114835
C      3.791202    0.893594    0.354367
C     -3.695845   -0.259004    2.669856
C     -5.784830   -0.822082   -0.141018
C      0.049548    0.549818    0.953324
C     -5.732342   -0.862195   -1.512942
C     -3.457028   -0.310318   -0.050310
C     -2.356380   -0.039794    0.735591
C     -4.665012   -0.549986    0.591418
Cl    -7.188638   -1.215325   -2.444546
N      4.127415   -0.369020   -0.222373
N     -4.770039   -0.522022    1.927608
N     -1.111476    0.195955    0.134637
H      5.130795   -2.500463   -0.696595
H      5.056591   -1.873367   -2.392356
H      6.657336   -2.076986   -1.502608
H      0.337216    2.694487    1.046452
H     -1.287665    2.131389    1.457493
H      0.001185    1.907802    2.672673
H      6.218630   -0.226133   -0.130970
H      5.533056    0.365154   -1.655333
H      2.431502    0.176382    1.890879
H      2.287993    1.892669    1.455495
H      1.215482    1.183938   -0.739939
H      1.419938   -0.525808   -0.234901
H     -4.488188   -0.656314   -3.265275
H     -2.512310   -0.174542   -1.950321
H     -1.639220    0.187990    2.774462
H      4.544988    1.172665    1.116061
H      3.797396    1.728681   -0.390377
H     -3.807891   -0.242016    3.756856
H     -6.735819   -1.011017    0.357738
H      0.129026   -0.182803    1.808923
H      3.372815   -0.868393   -0.696745
H     -0.943905    0.136148   -0.876150
