41

C     -1.282429    1.363371   -0.447355
C      5.217493    0.179877   -0.835467
C      3.965386    0.664138    1.215782
C     -4.135549    1.287012    1.214785
C     -4.522907   -2.443309    1.306988
C      1.457906    0.272132   -0.189098
C      0.303672   -0.543105   -0.656430
C      2.762012   -0.231906   -0.784741
C     -2.118462   -1.012154   -0.346869
C     -0.998882   -0.047625   -0.062668
C     -3.398386   -0.724887    0.355974
C      3.886972    0.631363   -0.278535
O      3.617103    1.949582   -0.705490
O     -3.981530    0.489169    0.094494
O     -4.262164   -1.794569    0.110760
H     -1.221613    2.020730    0.424151
H     -0.494829    1.711648   -1.152801
H     -2.237589    1.504036   -1.002829
H      5.064087   -0.309086   -1.810274
H      5.731971   -0.535145   -0.141990
H      5.892979    1.055198   -0.955117
H      3.275516    1.421833    1.663494
H      3.882958   -0.317483    1.687162
H      4.998705    1.041997    1.473455
H     -3.179189    1.526213    1.718595
H     -4.768910    2.161458    1.046252
H     -4.700603    0.656004    1.963678
H     -5.005418   -1.722090    2.028846
H     -3.579353   -2.760204    1.830633
H     -5.236255   -3.272574    1.200999
H      1.564929    0.131396    0.917287
H      1.344035    1.311605   -0.479046
H      0.180522   -0.517632   -1.773332
H      0.421709   -1.621982   -0.411292
H      2.949219   -1.257243   -0.434184
H      2.744143   -0.236990   -1.891564
H     -2.247450   -1.198367   -1.430276
H     -1.757883   -2.005533    0.057161
H     -0.808012   -0.053359    1.057200
H     -3.183038   -0.727956    1.457500
H      3.859131    1.954434   -1.684317
