35

C     -4.398035    0.350112   -0.294290
C     -2.602780   -1.291624   -0.377517
C     -2.957994    0.133799    1.658584
C      2.290817   -1.047267   -1.091761
C      0.150398    0.094229   -0.689846
C      3.609747   -1.329544   -0.827124
C     -0.653304    0.909570   -0.068380
C      2.178077    0.461379    0.691557
C      5.678618    0.353682    1.588854
C      1.540883   -0.158666   -0.356487
C      4.242713   -0.703036    0.226831
C      3.519346    0.184415    0.972955
C     -2.069135    1.117844   -0.467714
C     -2.979066    0.076007    0.154852
O     -2.204592    0.975160   -1.864509
O      5.539680   -0.767361    0.746481
O      4.354046    0.675455    1.955117
H     -5.036886   -0.536020   -0.101921
H     -4.470896    0.651709   -1.338077
H     -4.825115    1.168031    0.345123
H     -2.545212   -1.218223   -1.476156
H     -1.655353   -1.668866    0.009723
H     -3.463380   -1.978374   -0.140508
H     -3.950598   -0.251624    2.021659
H     -2.842868    1.190417    1.967251
H     -2.180718   -0.523224    2.101877
H      1.798115   -1.548961   -1.929188
H     -0.269888   -0.443011   -1.537275
H      4.173832   -2.040327   -1.431764
H     -0.292326    1.469535    0.779352
H      1.624434    1.165568    1.292959
H      6.302114    0.078657    2.458718
H      6.108979    1.200163    1.010204
H     -2.377741    2.133629   -0.203368
H     -1.335914    1.116769   -2.317763
