37

C      4.396966   -0.144505   -0.901274
C      3.119089   -0.918633   -1.319835
C      2.007859   -0.262199   -0.620246
C     -2.098832   -1.110562    1.293317
C     -2.017687   -1.395687   -0.987373
C     -3.192453   -2.001899    1.466393
C     -3.075956   -2.299151   -0.916407
C      0.624443   -0.869043   -0.786388
C      0.030570    0.258406    1.398929
C     -0.633733    1.326813   -0.647159
C      0.645883    3.809903    1.424752
C     -1.276984    2.959560    1.279612
C     -1.545428   -0.820675    0.148854
C     -3.676837   -2.616126    0.285383
C     -0.227163    0.045912    0.097667
Cl    -4.941318   -3.791985    0.394424
N      0.262051    0.478422    2.641258
N     -0.615511    3.826425    1.924966
N      0.656123    2.931819    0.489210
N     -0.701696    2.322567    0.361021
H      4.384769    0.838287   -1.390715
H      4.221559    0.087636    0.205172
H      5.274894   -0.780396   -1.045915
H      3.048215   -0.696345   -2.443883
H      3.229369   -1.977213   -1.226436
H      2.193981   -0.250485    0.477693
H      1.931919    0.823881   -0.935012
H     -1.769779   -0.706353    2.274472
H     -1.621040   -1.225640   -1.926601
H     -3.626850   -2.211935    2.386043
H     -3.460915   -2.796921   -1.802196
H      0.287188   -0.770641   -1.822145
H      0.621214   -1.905872   -0.532321
H     -1.640258    1.215541   -1.105520
H      0.093202    1.445425   -1.428917
H      1.464682    4.457895    1.800574
H     -2.371534    2.723773    1.488604
