25

C     -1.828682   -1.507593    0.643697
C      0.672503    0.943202   -1.242380
C      2.017902    0.744596   -1.450019
C     -1.382359    0.849110    0.156525
C      0.844783    0.104760    0.943525
C     -2.249149   -0.313051   -0.216737
C      0.049322    0.632420   -0.050109
C      2.823712    0.212521   -0.450119
C      2.218049   -0.103165    0.745765
N     -3.630029    0.023473    0.076691
O      4.165023    0.040721   -0.728427
O      2.991932   -0.632338    1.755539
H     -0.751947   -1.715426    0.482947
H     -2.416303   -2.408757    0.368560
H     -2.047197   -1.301797    1.704302
H      0.020774    1.360930   -2.016798
H      2.464483    1.002257   -2.399484
H     -1.544364    1.037723    1.249815
H     -1.689833    1.782855   -0.351355
H      0.436454   -0.172144    1.924141
H     -2.190429   -0.625921   -1.255117
H     -3.736190    0.592111    0.938239
H     -4.076407    0.562338   -0.694707
H      4.867129   -0.323672   -0.127215
H      3.970824   -0.785153    1.627090
