63

C     -3.576498    2.675054    0.307644
C     -1.624583    4.274360    0.315860
C     -4.517269   -3.406345    0.128011
C      4.770425    3.019789    0.231120
C     -0.731681   -3.953535   -2.719606
C      4.663403   -1.777756    0.112633
C      1.618686   -1.264147   -2.252043
C      0.886430   -2.365653    2.196906
C     -2.425005    0.808587    1.306873
C     -2.674231   -1.363087    0.467838
C      2.248217    2.029552    0.061278
C      0.066498    2.724299   -0.412418
C     -2.258730    1.929561    0.285506
C     -1.790025   -0.372375    0.639732
C      0.953376    1.610158   -0.051135
C     -2.308790   -2.532362   -0.180674
C      3.259977    1.171141    0.437406
C     -0.491296   -0.550401    0.149830
C      0.715758    0.262196    0.235775
C     -0.998439   -2.682188   -0.667325
C      2.963265   -0.178390    0.720113
C     -0.068770   -1.682643   -0.508850
C      1.673380   -0.646227    0.622906
C     -1.148789    2.845738    0.452941
O     -0.687543    2.733586    1.787514
O     -3.200607   -3.566661   -0.366231
O      4.543425    1.661104    0.526995
O     -0.602541   -3.828411   -1.316255
O      3.955590   -1.038724    1.094257
O      1.235561   -1.699184   -0.962562
O      1.269677   -1.933992    0.897973
H     -4.428779    1.995939    0.053283
H     -3.828761    3.059028    1.333926
H     -3.650629    3.507723   -0.386024
H     -0.757416    4.939516    0.562091
H     -2.503339    4.526455    0.914013
H     -1.889698    4.415924   -0.771363
H     -5.170868   -4.195800   -0.291907
H     -4.535909   -3.400768    1.245019
H     -4.960402   -2.430072   -0.186032
H      4.424294    3.204830   -0.827617
H      4.129365    3.687177    0.849470
H      5.840033    3.296523    0.255716
H     -1.278736   -4.913761   -2.894267
H     -1.393193   -3.144432   -3.122981
H      0.245524   -3.991533   -3.210188
H      4.021040   -2.577124   -0.348759
H      5.047790   -1.142371   -0.709586
H      5.574028   -2.264420    0.552678
H      2.180985   -2.074380   -2.796452
H      2.280360   -0.411527   -2.151934
H      0.724288   -0.981138   -2.844893
H     -0.119790   -2.771674    2.130131
H      1.537782   -3.238069    2.501163
H      0.927620   -1.540224    2.909131
H     -1.804918    1.060405    2.187805
H     -3.464850    0.574115    1.525734
H     -3.689377   -1.216202    0.855551
H      2.451093    3.075686   -0.158714
H      0.644358    3.662325   -0.324312
H     -0.256689    2.604154   -1.447677
H     -2.201024    1.504144   -0.764645
H      0.186947    2.276507    1.819626
