45

C      0.896602   -1.853304    3.188287
C     -0.730187   -2.776120    1.344062
C      4.529216    3.176613   -1.134371
C     -2.719390    0.531050    0.227549
C     -3.928117    0.591220   -0.433143
C      1.899012   -0.127657    1.795878
C     -1.951532   -1.269490   -1.148739
C      2.637551    1.487705    0.015666
C      0.118948    1.213040   -1.200046
C      1.335988   -1.507016    1.759608
C      0.171061   -1.690675    0.810408
C     -1.742571   -0.382455   -0.119913
C      1.687053    0.659104    0.565619
C      0.456899    0.538062   -0.046442
C     -4.137846   -0.299080   -1.465725
C     -3.158342   -1.212330   -1.811349
C      1.068819    2.044614   -1.754538
C      2.306837    2.166681   -1.138960
C     -0.498193   -0.380545    0.624706
O     -5.330636   -0.291337   -2.170294
O     -3.345051   -2.119487   -2.847405
O      0.843208    2.773915   -2.912499
O      3.255168    3.009695   -1.710424
H      1.133660   -2.890072    3.420106
H      1.478698   -1.227021    3.926810
H     -0.161909   -1.567928    3.350400
H     -1.196025   -3.389902    0.544438
H     -0.117157   -3.518088    1.936839
H     -1.498555   -2.386895    2.043435
H      4.513613    3.811854   -0.219233
H      5.190046    3.685261   -1.876926
H      4.932654    2.166746   -0.912866
H     -2.574993    1.251668    1.048195
H     -4.703204    1.310483   -0.163315
H      1.423025    0.440916    2.627918
H      2.991658   -0.152078    1.991072
H     -1.159662   -1.964069   -1.383989
H      3.594990    1.571226    0.506879
H     -0.860033    1.105542   -1.671519
H      2.167143   -2.205120    1.504951
H      0.602708   -2.035048   -0.155907
H     -0.662323    0.058505    1.650536
H     -6.052093    0.365380   -1.931865
H     -4.229629   -2.093500   -3.349257
H      1.522890    3.379935   -3.324638
