47

C     -5.492802    2.299029   -0.327709
C      3.352202   -2.796542    2.226834
C      4.255676    1.332639   -0.503409
C     -3.121687   -2.032821    0.721660
C     -4.374664   -2.177199    1.246493
C      5.485682    1.085958   -0.104261
C      1.846828    0.948083   -0.676571
C      3.132530   -0.553862    0.613341
C     -3.599504    0.135848   -0.064519
C     -0.762280    0.579354   -2.304541
C      3.091379    0.552933   -0.170574
C     -2.680117   -0.898110    0.055973
C      0.690705    0.252075   -0.400929
C     -0.749943    0.435450   -0.795661
C     -5.258596   -1.099878    1.093729
C     -4.872025    0.046486    0.443100
C      2.011193   -1.288724    0.922659
C      6.614481    1.947257   -0.500848
C     -1.320155   -0.892663   -0.446587
C      0.797388   -0.862980    0.400879
O     -0.024500    1.656147   -2.743652
O     -6.540349   -1.198599    1.608896
O      6.440986    2.936258   -1.226416
O      7.868847    1.604370   -0.029756
O     -5.762767    1.087615    0.308894
O      2.085924   -2.416762    1.727651
O     -0.449981   -1.399918    0.548386
H     -4.543745    2.703686    0.095765
H     -6.283905    3.037049   -0.068226
H     -5.464864    2.222861   -1.422938
H      4.071790   -3.055535    1.439688
H      3.799514   -2.008913    2.870474
H      3.233753   -3.701456    2.878080
H      4.156905    2.222923   -1.146003
H     -2.441185   -2.884570    0.849187
H     -4.712875   -3.062045    1.763342
H      5.637191    0.228294    0.525151
H      1.817224    1.827972   -1.299204
H      4.058947   -0.915761    1.037501
H     -3.250534    1.012916   -0.581877
H     -0.485952   -0.383310   -2.774442
H     -1.821691    0.767026   -2.598621
H     -1.157850    1.291552   -0.273840
H     -1.252418   -1.602396   -1.305674
H      0.453038    1.373455   -3.581042
H     -7.190507   -0.447819    1.514995
H      8.712712    2.092629   -0.303902
