48

C      6.319853    1.429573    0.583114
C     -4.602647    2.186357    1.334665
C     -5.064634    0.979741   -0.754282
C      5.875384    0.026390    0.141059
C      4.934870   -0.528814    1.112221
C      3.700177   -0.901179    0.890221
C      3.091573   -0.794457   -0.439722
C      0.264708   -1.594713   -0.247640
C      0.421995   -1.253041   -1.710391
C     -0.276466    0.653961    0.556663
C     -4.898443    0.844531    0.738887
C      0.801352   -0.406316    0.501136
C      1.869598    0.110595   -0.437837
C      1.157828    0.053293   -1.744149
C     -1.493533    0.208635    1.229693
C     -3.869878   -0.202706    1.106531
C     -4.286655   -1.469113    0.453251
N     -2.607677    0.204212    0.580835
O      1.165301    0.873945   -2.640662
O     -1.507011   -0.221002    2.569459
O     -5.367195   -2.026460    0.750498
O     -3.483173   -2.064273   -0.505152
H      7.060617    1.847688   -0.114347
H      5.442066    2.093798    0.669325
H      6.794117    1.374066    1.577465
H     -3.930831    2.771093    0.675581
H     -5.560691    2.759058    1.372563
H     -4.240303    2.130845    2.378296
H     -5.656449    0.130748   -1.142699
H     -5.659950    1.905863   -0.934458
H     -4.084055    1.087597   -1.252864
H      6.824526   -0.579544    0.182972
H      5.560626    0.126915   -0.883022
H      5.335413   -0.636062    2.141661
H      3.127538   -1.302574    1.745622
H      3.760835   -0.601204   -1.275558
H      2.663534   -1.822622   -0.658669
H      0.852267   -2.523978   -0.049527
H     -0.793634   -1.816386    0.011660
H      1.111267   -1.984887   -2.223516
H     -0.548404   -1.201244   -2.225285
H     -0.497790    0.935112   -0.490514
H      0.189164    1.549445    1.022151
H     -5.881919    0.499701    1.145207
H      1.197682   -0.662447    1.497592
H      2.135538    1.153548   -0.150831
H     -3.885294   -0.280862    2.217258
H     -3.461197   -3.062825   -0.666879
