44

C     -2.290232   -1.315067   -0.164757
C     -1.167408   -2.200737   -0.648212
C     -3.334633   -1.077002   -0.932565
C      0.130896   -1.412598   -0.680623
C     -4.504052    0.400283    0.723754
C     -5.476785   -0.053051   -1.393450
C      2.965464   -0.899771    0.136604
C      4.508250    0.729659   -0.987719
C      5.002250    0.107422    1.231402
C      1.791036   -0.117139    0.612930
C     -5.587191    1.205931    1.088949
C     -6.543142    0.738170   -1.037953
C      5.614809    1.557530   -1.025710
C      6.109959    0.937054    1.191341
C     -4.422342   -0.232004   -0.491225
C      4.179032   -0.007714    0.130709
C      0.506918   -0.890829    0.673006
C     -6.609211    1.364201    0.182932
C      6.438940    1.673990    0.073508
O      0.555901   -1.934702    1.581482
O     -7.723791    2.163842    0.497664
O      7.554029    2.507669    0.036516
H     -2.234142   -0.879895    0.813949
H     -1.430463   -2.564227   -1.652919
H     -1.110973   -3.025795    0.088514
H     -3.336598   -1.549782   -1.917613
H      0.943734   -2.028089   -1.097773
H      0.002678   -0.554168   -1.381718
H     -3.711154    0.279809    1.431412
H     -5.445292   -0.539725   -2.366571
H      3.130882   -1.737593    0.866848
H      2.832778   -1.369019   -0.842692
H      3.843053    0.628235   -1.858214
H      4.750867   -0.470617    2.119219
H      1.705282    0.785249   -0.029829
H      2.018126    0.180738    1.680015
H     -5.624148    1.691461    2.053077
H     -7.364064    0.874294   -1.747013
H      5.841673    2.119213   -1.917168
H      6.747271    1.019129    2.059390
H     -0.335551   -0.210243    0.994426
H      1.296152   -2.552024    1.359626
H     -7.711772    3.167570    0.267761
H      7.492965    3.490343    0.317052
