50

C      5.331065   -1.171665    0.410807
C      2.498304   -3.080204   -1.296493
C     -1.329679    3.708611    2.771998
C      1.353028    1.348645   -2.669969
C      0.323260    2.983702   -1.231342
C      4.501092   -2.199996   -0.280181
C     -3.814334   -1.041822   -1.280526
C     -4.431863   -2.188341    0.756986
C     -2.964940   -0.202464   -1.977126
C     -4.185037   -2.479231    2.082065
C      3.250856   -2.009001   -0.613627
C     -0.935823    2.362331    2.314265
C     -3.595640   -1.353110    0.045769
C     -1.859495    0.361410   -1.374819
C     -3.062035   -1.883843    2.629443
C     -1.644509    0.045096   -0.041164
C     -2.482518   -0.788269    0.660846
C     -0.465538    0.630313    0.645858
C      0.656948    0.755733   -0.342624
C      2.603605   -0.758388   -0.317948
C      0.299650    1.498065   -1.588906
O     -0.646624    1.508613    3.217030
O     -2.823287   -2.140930    3.841479
O      3.235053    0.141660    0.256276
O     -0.856953    1.959981    1.000443
O     -2.285768   -1.094357    1.928409
O      1.290074   -0.461997   -0.629965
O     -0.985194    1.214038   -2.058553
H      5.486418   -0.264076   -0.182818
H      4.948386   -0.923927    1.422770
H      6.361410   -1.583794    0.593747
H      3.114519   -3.971593   -1.512751
H      1.951316   -2.733182   -2.187333
H      1.703142   -3.440253   -0.581309
H     -2.332169    3.631488    3.258483
H     -0.580504    4.198404    3.405222
H     -1.519817    4.316004    1.840563
H      2.297449    1.758022   -2.254007
H      1.478842    0.307360   -3.001755
H      1.037228    2.010045   -3.503209
H      1.020948    3.181169   -0.389669
H     -0.706450    3.253952   -0.929321
H      0.561620    3.576867   -2.134637
H      4.977787   -3.167051   -0.516826
H     -4.683347   -1.484873   -1.754304
H     -5.289428   -2.613555    0.254042
H     -3.154910    0.029506   -3.018657
H     -4.824961   -3.130866    2.659083
H     -0.249997    0.011775    1.506290
H      1.428819    1.373997    0.167966
