50

C      3.997201   -3.402450    0.977374
C      3.434563    0.346652    1.535634
C     -2.055896   -2.496961    2.553954
C      0.517178   -0.853943   -3.653092
C      1.589444    0.988700   -2.500300
C      4.108274   -1.991365    1.433657
C     -2.451147    3.592053   -0.942138
C     -3.299204    3.504768    1.323118
C     -1.811392    2.963821   -1.986408
C     -3.500721    2.814160    2.502727
C      3.274694   -1.047190    1.046690
C     -1.984334   -1.954871    1.181441
C     -2.663007    2.934030    0.232866
C     -1.389566    1.644551   -1.808428
C     -3.036073    1.517609    2.548659
C     -1.599068    0.972915   -0.626683
C     -2.236461    1.609779    0.403348
C     -1.123863   -0.425620   -0.516927
C      0.214281   -0.628834   -1.176394
C      2.183188   -1.359905    0.132292
C      0.352449    0.108890   -2.465704
O     -2.725637   -2.485804    0.310620
O     -3.217364    0.879989    3.625478
O      1.997850   -2.516266   -0.313202
O     -1.173973   -0.920799    0.787137
O     -2.425663    0.955236    1.516730
O      1.294073   -0.390762   -0.290594
O     -0.737672    0.934418   -2.805840
H      3.047168   -3.876134    1.270058
H      4.108424   -3.500262   -0.127108
H      4.823672   -3.988416    1.435558
H      2.450103    0.669961    1.927107
H      4.145643    0.392218    2.378982
H      3.814978    1.022588    0.743611
H     -2.081120   -3.616089    2.459203
H     -1.269207   -2.139167    3.215175
H     -3.055394   -2.217213    2.969067
H      1.312805   -1.591102   -3.451323
H      0.789799   -0.256409   -4.544112
H     -0.465100   -1.370614   -3.823389
H      2.526157    0.406971   -2.482288
H      1.568509    1.519266   -3.489284
H      1.530279    1.769311   -1.725224
H      4.900073   -1.688820    2.117050
H     -2.807658    4.618031   -1.007323
H     -3.645660    4.538280    1.224921
H     -1.643703    3.474426   -2.908933
H     -4.002845    3.300214    3.329181
H     -1.857708   -1.037756   -1.122311
H      0.278631   -1.722083   -1.414633
