42

C     -4.065661    1.764217   -0.369641
C      0.033422    1.746462    0.660018
C     -1.768021   -0.752623    1.274537
C     -2.682019    0.381618    1.050191
C      4.054938   -0.776794    0.533374
C      2.836710   -0.409199    1.058588
C     -0.495450   -0.761119    0.542785
C      3.233932   -0.348230   -1.612085
C     -3.995110   -0.648888   -0.835849
C     -3.148810    0.531395   -0.383572
C      4.275667   -0.752535   -0.825064
C      1.768715    0.003276    0.264738
C      1.979134    0.033060   -1.094242
C      5.573987   -1.145070   -1.390630
C      0.435018    0.342742    0.890492
O     -3.260780   -1.825992   -0.892534
O      1.029884    0.421898   -1.979081
O      5.690209   -1.093855   -2.639196
O      6.628673   -1.552168   -0.626082
O      0.693292    0.224506    2.320178
H     -4.751035    1.600792    0.495524
H     -4.649715    1.816334   -1.317091
H     -3.465081    2.667918   -0.202817
H     -0.692169    1.964174   -0.117098
H     -0.206280    2.292538    1.630744
H      0.954065    2.364098    0.318230
H     -1.491801   -0.719429    2.387963
H     -2.291415   -1.744344    1.195266
H     -3.650683    0.225842    1.647607
H     -2.299568    1.330596    1.401278
H      4.869268   -1.093767    1.173010
H      2.680273   -0.435183    2.142521
H     -0.004095   -1.774359    0.804710
H     -0.609328   -0.859706   -0.561772
H      3.385625   -0.320927   -2.692484
H     -4.830283   -0.819194   -0.126771
H     -4.434733   -0.428616   -1.824984
H     -2.373488    0.686906   -1.118624
H     -3.796391   -2.627799   -0.763937
H      0.122369    0.749589   -1.933067
H      7.575788   -1.314885   -0.949962
H      1.140946    1.056721    2.609141
