21

C      3.043713   -0.245139    0.252898
C      1.675511   -0.433304   -0.374061
C      0.732995    0.512530    0.313173
C     -2.335379   -1.311911   -0.392822
C     -0.674858    0.412227   -0.234088
C     -1.602064    1.337058    0.436102
N     -1.124691   -0.958389   -0.097287
O     -2.735551   -2.613243   -0.254793
O     -2.643679    0.903523    1.036607
O     -1.426461    2.710319    0.469406
H      3.685453    0.434155   -0.341374
H      2.950535    0.194590    1.273335
H      3.546688   -1.230670    0.399348
H      1.788477   -0.176289   -1.446548
H      1.329664   -1.482422   -0.340358
H      1.067602    1.552342    0.147318
H      0.716544    0.342731    1.408190
H     -3.052762   -0.588514   -0.753589
H     -0.668606    0.638536   -1.319161
H     -2.059776   -3.353845   -0.113245
H     -2.213354    3.355715    0.394674
