42

C     -3.746322    1.488850   -0.810867
C      0.630148   -2.347745   -0.709289
C     -1.763423   -0.680307   -1.631337
C     -2.764779   -0.802606   -0.545805
C      3.220664    1.491066   -0.445560
C      1.995688    0.860360   -0.682067
C     -0.429484   -0.145310   -1.260340
C      3.735026   -0.173236    1.166520
C     -4.108358    0.154090    1.260324
C     -3.141829    0.466644    0.124094
C      4.098098    0.977797    0.480601
C      1.634686   -0.278702   -0.004351
C      2.520527   -0.786386    0.922475
C      5.378041    1.608843    0.749658
C      0.334491   -0.937693   -0.261741
O     -4.409095    1.292061    2.003359
O      2.215848   -1.931783    1.638835
O      5.679777    2.646751    0.115813
O      6.260863    1.090582    1.682995
O     -0.350814   -0.925482    0.961512
H     -4.492977    2.068410   -0.225746
H     -4.312129    1.010103   -1.641493
H     -2.981422    2.190416   -1.158580
H      1.647533   -2.447589   -1.151561
H      0.642451   -2.985325    0.205662
H     -0.084734   -2.727597   -1.455735
H     -1.633614   -1.629028   -2.202646
H     -2.190134    0.033802   -2.396216
H     -2.493523   -1.539477    0.239864
H     -3.702282   -1.223388   -1.013304
H      3.510963    2.384635   -0.973028
H      1.371763    1.333951   -1.424688
H     -0.553086    0.897180   -0.922386
H      0.169976   -0.096345   -2.211216
H      4.432519   -0.556360    1.883259
H     -3.591859   -0.587834    1.901998
H     -5.011539   -0.316305    0.820944
H     -2.271313    0.959043    0.591432
H     -5.352901    1.204506    2.311917
H      2.845216   -2.307509    2.309101
H      7.250371    1.298627    1.675483
H     -0.189032   -0.031713    1.358036
