42

C     -5.514066   -0.617639    1.304288
C     -0.055204    2.365399   -1.450302
C     -4.030134   -0.809155    1.374052
C     -2.525870    0.852086   -0.715200
C     -1.106194    0.335662   -0.491720
C      4.646015   -0.573624    1.935381
C      3.473606   -0.074565    1.380866
C      1.849586   -0.013159   -1.884618
C     -3.402174   -0.361558   -0.921328
C      2.800070   -0.713032   -2.605451
C      5.307085   -1.470154   -0.193622
C     -0.130404    1.437271   -0.287663
C      5.530404   -1.255441    1.141915
C      3.240746   -0.284588    0.042041
C      2.043632    0.218701   -0.546481
C      4.133884   -0.971890   -0.754338
Cl     7.003206   -1.868563    1.884829
N     -3.416528   -1.267865    0.177235
N      3.920619   -1.186819   -2.064862
N      1.112125    0.931728    0.216754
H     -6.001258   -1.417080    0.725647
H     -5.905935   -0.664629    2.358843
H     -5.730311    0.401451    0.879046
H     -0.665882    2.026239   -2.328918
H      0.962548    2.609002   -1.806425
H     -0.487757    3.399574   -1.219648
H     -3.568509    0.156291    1.722459
H     -3.810999   -1.550234    2.187456
H     -2.875248    1.496409    0.095042
H     -2.586812    1.449951   -1.665413
H     -1.155638   -0.265661    0.448038
H     -0.913601   -0.329644   -1.327806
H      4.823251   -0.402769    2.996138
H      2.770293    0.455473    1.968886
H      0.957455    0.356402   -2.362480
H     -3.002870   -0.945506   -1.803579
H     -4.431931   -0.081107   -1.230370
H      2.567657   -0.856723   -3.671878
H      6.031615   -2.021151   -0.813567
H     -0.618089    2.099307    0.540911
H     -2.525244   -1.733377    0.342816
H      1.286862    1.144986    1.251637
