52

C     -4.247998   -1.523743   -2.823803
C      0.231311    1.502982   -1.051069
C      1.559981    2.134473    1.331620
C     -3.435410   -0.252291   -2.640489
C      6.618620   -2.128853   -0.377974
C     -5.516658    1.240819    1.493202
C      6.567704   -0.738827   -0.351545
C      5.577510   -2.856581    0.166929
C     -4.832813    2.034241    0.599367
C     -5.130642   -0.055803    1.786773
C      5.502741   -0.077949    0.204769
C      4.497401   -2.182318    0.730957
C     -3.727309    1.505075   -0.016194
C     -4.012730   -0.536043    1.138857
C      3.276978   -0.139112    1.346643
C      2.157523    0.051850    0.343810
C     -0.872036   -0.388270    0.223174
C     -0.104030    0.899809    0.269795
C      4.442763   -0.808737    0.759000
C     -3.300852    0.221124    0.240041
C     -2.230387   -0.473875   -1.835940
N      1.092484    0.774210    1.057721
N     -2.143652   -0.229595   -0.454191
O     -1.189735   -0.917588   -2.426775
H     -3.602345   -2.425962   -2.736296
H     -4.680506   -1.570750   -3.842515
H     -5.093276   -1.550636   -2.098628
H     -0.720948    1.809110   -1.581629
H      0.814843    2.435987   -0.968753
H      0.805559    0.765081   -1.668121
H      2.199644    2.518398    0.517574
H      0.644883    2.772687    1.400565
H      2.050966    2.206495    2.328930
H     -3.141711    0.076321   -3.671829
H     -4.095332    0.535374   -2.238951
H      7.472208   -2.666161   -0.822316
H     -6.388406    1.653928    1.980570
H      7.413913   -0.198799   -0.791382
H      5.619157   -3.937013    0.145692
H     -5.168661    3.064099    0.384360
H     -5.699819   -0.667791    2.508967
H      5.465681    0.997277    0.226412
H      3.705565   -2.823777    1.143902
H     -3.163249    2.123971   -0.732467
H     -3.682204   -1.568088    1.358353
H      3.495405    0.788980    1.904149
H      2.855482   -0.851694    2.120140
H      2.451717    0.643117   -0.518255
H      1.792999   -0.939787    0.008129
H     -1.083695   -0.710388    1.256692
H     -0.302721   -1.182887   -0.335215
H     -0.745912    1.647909    0.833696
