57

C      7.780360    1.858201   -0.609759
C     -0.749040   -2.137219    0.099614
C     -6.394461   -0.558720    3.749614
C      7.162642    1.189039   -1.790607
C      5.595287   -1.222863    1.338519
C      4.245662   -1.340273    1.467651
C      6.091956   -0.447346    0.320630
C      3.423363   -0.676206    0.571596
C     -2.712497   -0.244349    1.751475
C     -3.940677   -0.347354    2.411044
C      1.341832   -0.659818   -1.830947
C      1.779330    0.726380   -1.440781
C     -1.315836    0.260125   -0.297765
C     -3.827444    0.413169   -0.208736
C     -0.934162   -1.040886   -0.934235
C     -2.639088    0.137731    0.431338
C      5.309699    0.215309   -0.573288
C      3.911236    0.101752   -0.451943
C     -5.119977   -0.067471    1.754236
C     -5.050292    0.315061    0.433221
N     -6.295789    1.131314   -2.020445
N     -0.007485   -0.936659   -1.942982
O     -7.271815    1.744155    0.379814
O     -7.409929   -0.564301   -0.342225
O     -6.359851   -0.162801    2.390425
O      5.803963    0.989841   -1.586364
O      3.180043    0.780282   -1.375771
S     -6.556408    0.667943   -0.382779
H      8.710548    1.356274   -0.278466
H      8.082265    2.890647   -0.929915
H      7.062425    1.985517    0.250387
H     -1.717052   -2.214609    0.649318
H      0.028239   -1.923330    0.833388
H     -0.635662   -3.095525   -0.437796
H     -5.761951    0.117037    4.388765
H     -5.959883   -1.568696    3.879012
H     -7.422294   -0.463735    4.160956
H      7.310014    1.782439   -2.717298
H      7.675105    0.195209   -1.923952
H      6.259099   -1.729336    2.022098
H      3.799023   -1.935002    2.247019
H      7.180195   -0.381721    0.243217
H      2.342380   -0.769993    0.732820
H     -1.810283   -0.472674    2.302561
H     -3.957476   -0.650982    3.449927
H      1.755032   -0.738850   -2.927783
H      1.980095   -1.415420   -1.337642
H      1.436829    1.459152   -2.244588
H      1.347839    1.115448   -0.510729
H     -0.522066    0.432804    0.501099
H     -1.277447    1.136803   -0.954653
H     -3.799364    0.717983   -1.254673
H     -1.929178   -1.380843   -1.446279
H     -5.603191    1.892624   -2.116383
H     -7.203932    1.512609   -2.383509
H     -6.075986    0.294710   -2.603594
H     -0.333943   -1.235358   -2.903855
