29

C     -4.247615   -0.330855    0.429902
C     -3.543617    0.504867   -0.607256
C     -2.067682    0.110537   -0.705434
C     -1.466787    0.346158    0.647415
C     -0.006605    0.006554    0.727709
C      0.839638    0.806983   -0.226089
C      2.532113   -0.781382   -0.438608
C      4.742744    0.259025    0.234741
C      4.032803   -0.916127   -0.320627
O      2.173008    0.508315   -0.161421
O      4.850677   -0.142290   -1.135341
H     -5.255150   -0.650108    0.054631
H     -3.626683   -1.245539    0.610672
H     -4.380672    0.194951    1.378365
H     -3.646701    1.570984   -0.318323
H     -4.042902    0.406957   -1.594073
H     -1.988342   -0.909925   -1.075710
H     -1.606668    0.798206   -1.443250
H     -1.994127   -0.296623    1.382150
H     -1.645253    1.394503    0.924141
H      0.330713    0.248331    1.756850
H      0.156194   -1.071251    0.562743
H      0.705759    1.883292   -0.111445
H      0.498110    0.555975   -1.272951
H      2.115648   -1.534258    0.293614
H      2.195202   -1.141318   -1.432032
H      4.200779    1.192314    0.436816
H      5.725111    0.174295    0.737208
H      4.420306   -1.942569   -0.078731
