21

C      3.490244    0.945531   -0.271675
C      0.463581   -1.846775    0.637517
C     -0.854812   -1.504576    0.426683
C      1.451733   -0.914577    0.332692
C     -0.186538    0.652577   -0.373935
C     -3.240645    1.023605    0.582277
C     -1.188951   -0.262277   -0.076700
C      1.138565    0.330001   -0.170354
C     -2.613003    0.051386   -0.282555
O      2.129178    1.250035   -0.470321
O     -3.385183   -0.390363    0.917955
H      3.789140    1.087062    0.785910
H      4.092556    1.634667   -0.920388
H      3.768754   -0.072136   -0.572068
H      0.738911   -2.803646    1.026296
H     -1.609603   -2.258047    0.675663
H      2.472569   -1.216449    0.510341
H     -0.501580    1.619240   -0.768855
H     -2.630953    1.520005    1.350947
H     -4.220793    1.457811    0.382339
H     -3.103171   -0.303077   -1.215261
