43

C     -0.366040    0.067282   -2.794992
C      2.245178   -0.419622   -1.287518
C      0.883688   -0.329559   -0.630926
C     -4.510537    2.023456    1.793974
C     -3.436880    1.623766    1.000092
C     -2.345227   -1.314034   -0.802373
C      3.162619   -1.271647   -0.479732
C     -3.390713   -2.173654   -0.518594
C      4.181815    0.332435    1.025319
C      5.613603    0.061943    0.555132
C     -5.501884   -0.144171    1.532313
C     -0.073613    0.516157   -1.408723
C     -5.527385    1.132127    2.047689
C     -3.366660    0.378587    0.470192
C     -2.308736   -0.025565   -0.317210
C     -4.419205   -0.513785    0.745023
Cl    -6.862569    1.656678    3.048537
N      3.427843   -0.852554    0.841702
N     -4.398074   -1.754397    0.245436
N     -1.237905    0.843311   -0.608917
O      6.325930    1.234659    0.746128
H     -1.455013    0.089985   -3.020299
H     -0.001335   -0.943484   -3.063769
H      0.087252    0.747316   -3.583795
H      2.694510    0.599239   -1.422968
H      2.083216   -0.919542   -2.265473
H      0.560076   -1.368998   -0.462987
H      1.058642    0.096500    0.391251
H     -4.507132    3.033539    2.192489
H     -2.667926    2.350893    0.827097
H     -1.534232   -1.661793   -1.426704
H      2.749184   -2.312115   -0.425028
H      4.123962   -1.397328   -1.040995
H     -3.368878   -3.196588   -0.933823
H      4.262301    0.531926    2.128478
H      3.778227    1.228648    0.548645
H      5.637859   -0.140626   -0.550458
H      6.036912   -0.808585    1.057652
H     -6.299259   -0.833860    1.737753
H      0.480067    1.514330   -1.542675
H      2.733372   -1.079216    1.555530
H     -1.268798    1.816599   -0.215997
H      6.721745    1.581751   -0.081386
