26

C      4.026030    0.699902   -0.310619
C     -2.374882    1.135914   -0.404035
C      2.169525   -0.831689   -0.727729
C      1.775983    0.982146    0.754535
C      0.867974   -1.208081   -0.507959
C      0.469019    0.596307    0.969429
C     -1.387902   -0.976517    0.522179
C      2.622850    0.290240   -0.076527
C     -2.340255   -0.363810   -0.472877
C      0.009329   -0.525032    0.321082
N     -3.657941   -0.904675   -0.209149
H      4.192876    0.702212   -1.403990
H      4.680764   -0.076353    0.162872
H      4.185523    1.694078    0.144350
H     -1.463508    1.578638   -0.834096
H     -3.226752    1.470608   -1.039197
H     -2.600118    1.502848    0.622789
H      2.805261   -1.397493   -1.385690
H      2.141256    1.881820    1.276066
H      0.537960   -2.108396   -1.043370
H     -0.174470    1.173451    1.638653
H     -1.723645   -0.855491    1.575320
H     -1.396697   -2.074168    0.322716
H     -2.025253   -0.667509   -1.478918
H     -4.421980   -0.232247   -0.332665
H     -3.690946   -1.486703    0.637144
