53

C      7.212431    1.365450   -0.398138
C     -5.523170    0.185669    1.392760
C     -3.884187    0.738525    3.073623
C     -3.824070    0.762396   -3.067219
C      6.857040    0.054638   -1.040310
C      5.700157   -0.581943   -0.392720
C      4.387439    0.199024   -0.508743
C      3.390322   -0.564316    0.292905
C     -4.088013   -1.059277   -1.358403
C     -3.806415   -1.501687    0.023988
C     -2.692080    0.963974   -0.896493
C      1.478593    0.925495    0.956833
C      1.072072   -1.058148   -0.269990
C     -4.269516    0.137390    1.757919
C     -3.465376    0.261154   -1.689150
C      2.003958   -0.168521    0.305349
C     -3.187601   -0.546514    0.920987
C     -2.273879    0.542925    0.516337
C      0.106354    1.127208    1.039651
C     -0.285261   -0.834707   -0.173200
C     -0.821426    0.234622    0.470867
O     -0.320545    2.255510    1.721074
O     -1.083861   -1.803685   -0.809084
H      8.085187    1.829950   -0.948474
H      7.628359    1.140294    0.639050
H      6.383616    2.071214   -0.348772
H     -6.257602    0.646529    2.034132
H     -5.883822   -0.219964    0.426971
H     -2.822302    0.751226    3.270744
H     -4.498764    0.248095    3.886709
H     -4.268193    1.800853    3.083585
H     -2.895063    1.195410   -3.486053
H     -4.189004   -0.068366   -3.703748
H     -4.576580    1.554066   -2.928105
H      6.597739    0.252564   -2.107302
H      7.765948   -0.587095   -1.020766
H      5.857751   -0.792102    0.685825
H      5.483839   -1.576663   -0.910738
H      4.576391    1.195328   -0.050249
H      4.142978    0.321014   -1.572275
H      3.789467   -0.602592    1.344342
H      3.495208   -1.646828   -0.039020
H     -5.158398   -1.109678   -1.670452
H     -3.593184   -1.815248   -2.039175
H     -4.841436   -1.760175    0.465804
H     -3.354535   -2.559066    0.071101
H     -2.303903    1.912933   -1.234207
H      2.202603    1.603641    1.393999
H      1.468541   -1.925446   -0.801139
H     -2.671652   -1.176651    1.740343
H     -2.442545    1.437686    1.117586
H      0.333590    2.903977    2.144772
H     -0.737201   -2.584171   -1.313333
