35

C      0.362756    3.311412   -1.327298
C      3.422257   -2.309988   -0.426059
C      3.001210   -2.339117    0.873729
C      2.806117   -1.449656   -1.302665
C     -2.863645   -0.810529   -0.839673
C     -3.239472    0.371890    0.008730
C      1.978249   -1.516613    1.282769
C      1.777431   -0.627982   -0.874590
C     -1.332564   -0.704463   -0.826744
C     -2.277134    0.266605    1.170815
C      1.327370   -0.635114    0.440838
C     -1.073309   -0.433986    0.620552
C      0.329520    1.617553    0.461296
C      0.228375    0.235173    0.923331
O      0.482104    2.559029    1.275194
O      0.333354    0.247513    2.333577
O      0.264864    1.972326   -0.878813
H      1.436850    3.514276   -1.522519
H      0.047555    4.036090   -0.544464
H     -0.260252    3.506952   -2.212842
H      4.228021   -2.952354   -0.765224
H      3.467707   -3.006182    1.585669
H      3.155579   -1.444160   -2.324007
H     -3.150325   -1.755233   -0.359418
H     -3.250659   -0.706484   -1.869675
H     -4.280023    0.308824    0.392081
H     -3.090095    1.301916   -0.585095
H      1.660797   -1.555676    2.315403
H      1.330814    0.021900   -1.589650
H     -1.058902    0.145764   -1.477186
H     -0.909077   -1.654519   -1.174193
H     -2.764293   -0.278802    2.004805
H     -2.081838    1.289760    1.530438
H     -1.034894   -1.442217    1.130860
H      1.025551    0.916090    2.550026
