34

C      0.768341   -2.401615    0.288758
C     -5.138101    1.360726    0.727750
C     -5.269537    0.162139    0.083751
C     -3.906027    1.866392    1.016547
C     -4.133720   -0.534823   -0.273107
C     -2.775997    1.145161    0.646603
C      2.009736    0.354788    0.905293
C      2.859608   -0.262369   -1.234105
C      3.145263    1.109905    1.144846
C      4.006004    0.482578   -1.026376
C      0.647371   -1.133558   -0.524311
C      1.866415   -0.322178   -0.265663
C     -2.855307   -0.069204   -0.005091
C      4.132382    1.166276    0.176298
C     -1.679497   -0.827627   -0.394258
N      5.322626    1.925474    0.364012
N     -0.507932   -0.374437   -0.134477
O     -1.842778   -2.036713   -1.044286
H      1.664591   -2.377287    0.970836
H     -0.108149   -2.459322    0.965274
H      0.898881   -3.299487   -0.336891
H     -6.053243    1.895961    1.001176
H     -6.242505   -0.273380   -0.163685
H     -3.816148    2.808598    1.522600
H     -4.208469   -1.483338   -0.782332
H     -1.780863    1.520872    0.862335
H      1.263748    0.337776    1.687416
H      2.697911   -0.818630   -2.148265
H      3.299094    1.657045    2.049692
H      4.757970    0.508549   -1.797471
H      0.618414   -1.431008   -1.594039
H      5.219726    2.914943    0.643792
H      6.226836    1.429510    0.205666
H     -1.086644   -2.541721   -1.452069
