51

C     -5.505321    2.067284   -0.379725
C      4.929731    3.267840   -0.569783
C     -5.360000    0.979025   -1.401703
C      1.526670   -3.340543    1.048755
C      2.489569   -2.479634    0.218035
C      0.324735   -2.504233    1.338548
C      1.340274    1.969527    1.192000
C      2.509078    2.416724    0.637351
C      1.754090   -2.211795   -1.084386
C     -0.023407   -0.845325   -2.061165
C     -1.282612   -0.064944   -1.850406
C     -0.524390    0.341858    1.365352
C      2.487183    0.505069   -0.839074
C      0.733429    0.781848    0.733609
C      3.071809    1.676993   -0.375721
C     -0.286554   -1.834748    0.158879
C      1.297722    0.052168   -0.272912
C     -1.222419   -0.733328    0.618895
C     -3.263883    0.126146   -0.433386
C      0.685126   -1.192248   -0.775485
N     -1.887696   -0.230418   -0.568954
O     -3.895242    0.017676    0.660589
O      4.260626    2.093505   -0.969748
O     -4.014852    0.622280   -1.503103
H     -6.440931    2.660453   -0.594646
H     -4.619344    2.719259   -0.334711
H     -5.648265    1.618603    0.612165
H      5.983526    3.233538   -0.943570
H      5.005198    3.351671    0.542787
H      4.404581    4.179555   -0.908733
H     -5.709562    1.292025   -2.397929
H     -5.938289    0.079952   -1.109068
H      2.000535   -3.609569    2.006404
H      1.302212   -4.219633    0.415791
H      2.585654   -1.526857    0.786230
H      3.453960   -2.986861    0.062125
H      0.571101   -1.821879    2.180478
H     -0.457738   -3.200405    1.762532
H      0.869357    2.527998    1.992440
H      3.007590    3.312953    0.951830
H      2.394944   -1.979693   -1.927884
H      1.230973   -3.174187   -1.350465
H      0.653047   -0.283840   -2.742656
H     -0.283953   -1.790120   -2.581310
H     -2.059805   -0.310233   -2.629553
H     -1.064974    1.028658   -2.005431
H     -0.289296    0.011102    2.397244
H     -1.190517    1.231655    1.399026
H      2.938866   -0.051367   -1.624107
H     -0.902330   -2.552596   -0.415488
H     -1.940205   -1.220911    1.315619
