59

C     -2.111035   -4.992131    0.616308
C      0.491575    0.958800   -1.472067
C     -3.037493   -4.067194   -0.139094
C     -5.745783    3.142721   -1.828970
C     -5.502153    1.945338   -2.430490
C     -5.297219    3.330678   -0.523027
C      6.471195    2.534180    1.328262
C      7.095104    1.482063    0.714866
C     -4.821683    0.942343   -1.748799
C     -4.615057    2.323219    0.158391
C      5.095040    2.447831    1.481298
C      6.415166    0.373986    0.259347
C     -3.642220    0.036119    0.272899
C     -2.181476    0.235022   -0.021236
C      2.890786    1.364371    1.255699
C      4.368605   -0.912230   -0.090081
C      0.594901   -0.461372   -0.923576
C     -4.377796    1.122481   -0.462364
C      4.383513    1.353243    1.037024
C      5.035139    0.322308    0.430235
C     -1.311816   -0.752861    0.653789
C      2.494064   -0.099390    1.283507
C      2.006788   -0.944365   -0.984913
C      1.058446   -0.316776    1.465352
C     -1.643663   -2.123105    0.219833
N      2.928143   -0.661703    0.037236
N      0.099808   -0.515459    0.440196
O      2.399381   -1.632806   -1.986613
O      0.617292   -0.330459    2.658735
O     -0.709734   -2.819243   -0.302457
O     -2.861148   -2.743167    0.317644
H     -1.187237   -5.120481    0.007569
H     -2.613238   -5.944633    0.827470
H     -1.801597   -4.465780    1.563946
H     -0.167546    1.024753   -2.353754
H      1.500212    1.304942   -1.829031
H      0.182229    1.683708   -0.696054
H     -2.807122   -4.140506   -1.218861
H     -4.085837   -4.402600    0.080615
H     -6.271726    3.945050   -2.328552
H     -5.824776    1.751891   -3.428445
H     -5.467065    4.254831   -0.013325
H      7.044553    3.391127    1.673775
H      8.182789    1.520225    0.578975
H     -4.635400    0.006374   -2.229529
H     -4.280427    2.492691    1.162235
H      4.617138    3.297197    1.972740
H      6.948871   -0.443587   -0.224290
H     -4.078794   -0.894585   -0.089787
H     -3.795870    0.164803    1.382853
H     -1.960845    1.295054    0.309971
H     -2.023603    0.140136   -1.118738
H      2.614578    1.906363    2.168240
H      2.481308    1.917022    0.389676
H      4.589242   -1.759611    0.591917
H      4.651452   -1.107532   -1.139645
H      0.016111   -1.085288   -1.633184
H     -1.516573   -0.732824    1.765662
H      3.102501   -0.541180    2.110617
