29

C     -3.507863    0.561879    1.112274
C      3.400477    1.531549    1.230672
C     -3.469187   -0.797956    0.962279
C     -2.466179    1.307806    0.603718
C      2.460398    0.662931    1.697499
C      3.473726    1.741086   -0.135883
C     -2.404398   -1.384705    0.315194
C     -1.392464    0.707242   -0.049872
C      1.617761    0.023711    0.809173
C      2.639002    1.108426   -1.021111
C     -1.357057   -0.648607   -0.197190
C      1.697422    0.237470   -0.544588
C     -0.238250   -1.367702   -0.903612
C      0.787381   -0.461280   -1.424804
N     -0.891289   -2.189305   -1.881796
O      0.891490   -0.278635   -2.659911
H     -4.350754    1.030456    1.625086
H      4.070639    2.046096    1.879367
H     -4.298426   -1.364282    1.369517
H     -2.458873    2.378348    0.700808
H      2.391191    0.489524    2.758109
H      4.231154    2.440052   -0.503813
H     -2.395966   -2.467880    0.208155
H     -0.590615    1.299770   -0.449792
H      0.879030   -0.663639    1.220839
H      2.703581    1.277332   -2.077550
H      0.222401   -2.071469   -0.149429
H     -0.960500   -3.184962   -1.638640
H     -0.683832   -1.963251   -2.854700
