70

C     -3.504195    4.495377   -1.133976
C     -2.066199    3.710639    0.644770
C      7.672868   -2.141591   -0.084100
C      7.526850   -0.939305    2.038372
C      8.080020    0.285542    0.002714
C     -7.848929   -0.942057   -0.168229
C     -1.970111   -2.181899   -0.364671
C     -3.911509   -2.248510    0.958891
C     -1.614264   -3.449468    0.109290
C     -3.566099   -3.496838    1.428877
C     -0.252790    1.328820   -0.092062
C     -1.361935    0.678139    0.079623
C      2.000465    0.649987   -0.606920
C      3.439182   -1.150923    0.438465
C     -2.521958    3.363969   -0.747718
C     -3.120570   -1.560816    0.050265
C     -2.411161   -4.117014    1.011004
C      1.032758    0.836729    0.505067
C      3.355762    0.168325   -0.240586
C     -2.702254    0.892422   -0.347047
C      4.897398   -1.430682    0.701300
C     -3.236371    2.054289   -0.784932
C     -3.546530   -0.236623   -0.390613
C     -5.310670    1.089701   -1.289811
C      7.235547   -0.849956    0.572030
F     -2.063365   -5.361312    1.477416
N     -4.519877    2.158387   -1.251510
N     -4.791962   -0.057582   -0.858727
N     -6.667322    1.168369   -1.774846
O      0.782400   -0.269351    1.263048
O      3.961493    1.152293    0.581096
O      5.221686   -2.497836    1.296511
O     -6.836190   -1.302243   -2.591030
O     -8.941469    0.000708   -2.458865
O      5.875830   -0.552779    0.308207
S     -7.621850   -0.274846   -1.789166
H     -4.402755    4.463019   -0.487558
H     -3.792167    4.431940   -2.186197
H     -2.963467    5.432736   -0.885979
H     -2.207069    2.853557    1.357958
H     -2.629377    4.596404    0.998256
H     -1.000402    4.038735    0.603357
H      8.387783   -2.704782    0.568742
H      8.249808   -1.955349   -1.032032
H      6.831289   -2.786747   -0.372934
H      7.274362   -1.917219    2.490224
H      8.620461   -0.803170    2.184899
H      7.012045   -0.108169    2.583725
H      7.499345    0.755018   -0.836329
H      8.323464    1.000205    0.796996
H      9.005491   -0.154660   -0.470602
H     -7.873038   -0.128165    0.609214
H     -8.815409   -1.479783   -0.069147
H     -7.057505   -1.628945    0.138177
H     -1.313891   -1.699403   -1.081185
H     -4.832324   -1.749986    1.288571
H     -0.699423   -3.934379   -0.224596
H     -4.185169   -4.022540    2.133687
H     -0.184923    2.207329   -0.684423
H     -1.215862   -0.221204    0.743718
H      1.614391   -0.031469   -1.410795
H      2.078731    1.646890   -1.133244
H      3.125547   -1.949531   -0.279058
H      2.890464   -1.213561    1.403075
H     -1.696942    3.400905   -1.464952
H      1.429109    1.651374    1.163431
H      4.039747    0.118003   -1.126979
H     -7.047042    2.065843   -2.101864
H      0.628980   -1.057335    0.653076
H      4.211071    1.912374   -0.000071
