18

C     -2.522067    0.524845    0.162318
C      1.311192    0.342991   -0.336950
C     -1.405721    0.070701   -0.785384
C      2.737919    0.240269   -0.003198
C     -0.611870   -1.016265   -0.186469
Cl    -2.245906   -0.555027   -2.244719
N      0.641852   -0.886206    0.018697
O      3.177262   -0.816684    0.511452
O      3.619699    1.271786   -0.236801
O     -1.259581   -2.205905    0.157742
H     -2.925526    1.463438   -0.277774
H     -2.139160    0.665219    1.185711
H     -3.306118   -0.236221    0.102005
H      1.152634    0.469082   -1.447757
H      0.841182    1.226045    0.145886
H     -0.790444    0.940206   -1.044164
H      4.447140    1.436266    0.347101
H     -0.722487   -2.934538    0.629600
