57

C     -2.527875    1.249317    0.878355
C      1.265106    1.280321    1.492176
C     -4.618024   -0.783228    1.238426
C     -0.385604   -0.895223    1.306673
C      5.127469   -0.939397    0.127904
C     -3.160860   -1.085644    1.134042
C      1.119500   -1.120013    1.202448
C      3.637718   -1.114146   -0.177971
C     -4.388640   -0.144084   -1.194828
C     -1.375813   -0.848158   -2.906982
C      2.401672    2.305899   -1.117447
C     -5.219867   -0.361138   -0.033294
C     -2.338817    0.200351   -2.380373
C     -0.894144    0.358343   -2.266689
C      1.981329    0.999236   -1.624507
C     -1.042242   -0.603868    0.009636
C     -3.076517   -0.018131   -1.126981
C      3.266239    1.202437   -0.772573
C      5.039418   -0.247822    1.461189
C     -0.374116    0.412108   -0.850466
C      1.090269    0.168903   -0.790809
C     -2.453830   -0.104021    0.219607
C      1.625973    0.180502    0.595591
C      3.091833    0.212601    0.310831
O     -6.483610   -0.200948   -0.055282
O      5.913890   -0.365776    2.348915
O      3.872600    0.473934    1.457952
H     -2.406449    2.046608    0.109811
H     -1.912497    1.381458    1.762581
H     -3.593566    1.367733    1.243846
H      2.154367    1.952606    1.699841
H      0.370038    1.862959    1.250851
H      1.061196    0.876261    2.534255
H     -4.856420   -0.024950    2.028146
H     -5.114825   -1.725059    1.615820
H     -0.646576   -0.158866    2.061328
H     -0.789032   -1.876938    1.690302
H      5.601124   -0.223196   -0.567509
H      5.646274   -1.900736    0.207512
H     -2.712334   -0.946845    2.139939
H     -2.952529   -2.114130    0.813796
H      1.512629   -1.312930    2.198869
H      1.241736   -1.971048    0.491870
H      3.481854   -1.239827   -1.267047
H      3.279903   -1.971991    0.421744
H     -4.905319   -0.086678   -2.160608
H     -1.381289   -1.860088   -2.504363
H     -1.318954   -0.865599   -4.037131
H      1.699676    2.834880   -0.475930
H      2.797511    3.007484   -1.913927
H     -2.868032    0.854960   -3.134400
H     -0.409677    1.148496   -2.912135
H      2.199344    0.674630   -2.668697
H     -1.166562   -1.592252   -0.505909
H      4.240738    1.096649   -1.321453
H     -0.573459    1.444878   -0.505362
H      1.228075   -0.890826   -1.181131
