40

C      3.831696   -1.256468    0.321881
C     -2.661868   -3.295413   -0.065401
C     -1.390923   -3.729181   -0.368615
C     -2.836390   -1.961088    0.274836
C     -0.343350   -2.851168   -0.329136
C      2.883724    0.864907    0.894334
C      2.080116    1.227197   -0.336985
C     -2.203468    0.260844    0.695632
C     -2.446254    2.383161   -0.250125
C     -0.709775    3.612422   -1.305419
C      1.599636   -1.156216    1.200467
C     -1.765592   -1.082561    0.310761
C     -1.549965    1.363866   -0.007425
C     -2.012677    3.527449   -0.912298
C     -0.500006   -1.500209    0.012149
C      0.805013   -0.854956   -0.044415
C     -0.247534    1.473971   -0.412412
N      0.136510    2.596976   -1.051030
N      2.906834   -0.534914    1.176585
N      0.799152    0.548103   -0.255843
O     -2.858495    4.590821   -1.189650
H      3.824604   -0.787049   -0.697526
H      3.532069   -2.306769    0.243613
H      4.858193   -1.115409    0.716115
H     -3.499616   -3.976288   -0.091990
H     -1.208642   -4.777399   -0.643064
H     -3.821749   -1.581081    0.520155
H      0.635380   -3.233760   -0.574014
H      3.907059    1.210533    0.733122
H      2.404869    1.379973    1.751189
H      2.608672    0.975578   -1.268841
H      1.963697    2.333443   -0.319624
H     -1.964048    0.385146    1.792117
H     -3.310836    0.333181    0.643297
H     -3.479899    2.337966    0.051176
H     -0.328079    4.495900   -1.829359
H      1.755560   -2.249700    1.256964
H      1.058382   -0.871261    2.126755
H      1.379314   -1.322271   -0.896467
H     -3.831315    4.541725   -0.902956
