38

C      4.701939   -1.570730   -0.108826
C     -2.758633   -1.549710   -0.146679
C     -1.701405   -1.771922   -1.163868
C      2.236197    2.640222   -0.088509
C     -2.356086   -0.756867    1.066665
C      0.991916    2.041573   -0.057339
C      3.404043    1.915989   -0.108741
C     -0.766886   -0.622095   -1.369947
C      2.106915   -0.067617   -0.067140
C     -2.456200    1.298566   -0.153182
C      0.914351    0.675531   -0.047210
C     -1.509915    0.473618    0.636927
C      3.346404    0.522693   -0.097132
C     -0.332787   -0.107185   -0.028594
N     -3.548019    1.620587    0.788132
O     -0.026387   -1.281005    0.721922
O      4.515693   -0.199759   -0.117464
H      3.809638   -2.197103   -0.269649
H      5.451232   -1.850610   -0.898111
H      5.193250   -1.892164    0.849636
H     -3.689893   -1.178350   -0.629024
H     -3.074875   -2.569642    0.242563
H     -2.222591   -1.920046   -2.163474
H     -1.197693   -2.747405   -0.970879
H      2.316228    3.715738   -0.098256
H     -3.273180   -0.335911    1.515544
H     -1.832574   -1.348941    1.822542
H      0.078578    2.604912   -0.033257
H      4.379845    2.360495   -0.136703
H     -1.315722    0.173494   -1.923119
H      0.119941   -0.966632   -1.950271
H      2.098546   -1.148188   -0.055752
H     -2.093972    2.170366   -0.669984
H     -3.001312    0.698804   -0.949395
H     -1.253986    0.991046    1.582278
H     -4.360175    2.048452    0.333876
H     -3.189338    2.131146    1.624905
H      0.296912   -2.001353    0.166366
