20

C      2.749814   -0.253366   -0.369592
C     -1.295848    1.710834   -0.160170
C      1.327551    0.167493   -0.588157
C     -0.930826    0.359103    0.266804
C      0.438867   -0.095395    0.601441
C     -1.736806   -0.674246    0.426920
C     -0.970470   -1.823846    0.859922
O     -3.131248   -0.662913    0.210093
O     -1.465005   -2.975375    1.100198
O      0.350805   -1.431081    0.954634
H      3.186639   -0.511743   -1.367275
H      2.839074   -1.088260    0.338184
H      3.361527    0.604411    0.007939
H     -1.697271    2.258734    0.716667
H     -2.077642    1.651711   -0.951806
H     -0.452553    2.282475   -0.586205
H      0.882875   -0.305928   -1.478595
H      1.308438    1.270652   -0.775456
H      0.777899    0.514203    1.473298
H     -3.465820   -0.997462   -0.678843
