63

C      6.562606    1.163399   -2.427785
C     -5.115223   -1.684912   -3.101334
C     -6.165321    3.131445    2.377261
C     -8.445829    0.276767   -0.569787
C      7.391878   -0.537070    2.277250
C      8.199592    0.028643    1.292405
C      6.050822   -0.720659    2.019825
C      7.678044    0.403845    0.073907
C      2.450487   -2.077070   -0.030342
C      1.877613    0.180625    0.542122
C      3.679384   -1.341617   -0.554018
C      3.146308    0.052711    1.400505
C     -4.074376   -0.328622   -0.642988
C     -4.479634    1.234120    1.087106
C      0.438048   -1.203042   -0.832441
C     -1.370604   -0.671552    0.679409
C     -0.734362   -0.251548   -0.620237
C     -3.619891    0.304088    0.478668
C      5.519743   -0.344823    0.794715
C      6.316277    0.214802   -0.181043
C     -5.337676   -0.086707   -1.196170
C     -5.719025    1.506288    0.590319
C     -6.127242    0.844456   -0.539484
N      1.385156   -1.120513    0.225944
N      4.152636   -0.538152    0.551864
O     -0.248424    1.058579   -0.560628
O      5.773889    0.589537   -1.411565
O     -5.727115   -0.745091   -2.309088
O     -6.532474    2.427747    1.219552
O     -7.381191    1.103719   -1.063816
O     -2.428136    0.114253    1.039233
H      6.941549    2.156104   -2.151795
H      7.457489    0.487625   -2.553655
H      5.976499    1.184586   -3.366661
H     -5.239271   -1.483406   -4.210665
H     -5.499067   -2.723374   -2.952617
H     -4.036108   -1.729288   -2.924212
H     -5.439665    3.932130    2.190344
H     -7.105464    3.558948    2.806388
H     -5.750579    2.428831    3.141443
H     -9.397157    0.774940   -0.780542
H     -8.398634   -0.716666   -1.053124
H     -8.328495    0.107021    0.531945
H      7.799309   -0.835624    3.242693
H      9.243680    0.170974    1.488046
H      5.386704   -1.163792    2.774094
H      8.260921    0.842469   -0.711902
H      2.131674   -2.767074   -0.832702
H      2.710316   -2.663841    0.865399
H      2.188765    0.794792   -0.333105
H      1.178214    0.758600    1.213910
H      4.435664   -2.063908   -0.884838
H      3.359874   -0.707547   -1.412091
H      3.491725    1.083208    1.687317
H      2.925600   -0.539067    2.310320
H     -3.477714   -1.080750   -1.148389
H     -4.152678    1.755618    1.982580
H     -0.009344   -2.225200   -0.810786
H      0.878951   -1.083162   -1.844122
H     -0.599040   -0.793697    1.487721
H     -1.677690   -1.761045    0.498063
H     -1.412331   -0.337194   -1.462204
H     -0.959656    1.655147   -0.885025
