63

C      6.499131    3.178629    0.882833
C     -7.455526   -3.425964   -0.090400
C     -4.295437    3.092600    0.287160
C     -7.639271    0.736985   -2.004974
C      7.622795   -1.184461   -1.173381
C      8.333817   -0.058770   -0.834011
C      6.256581   -1.227906   -0.930129
C      7.692045    1.001296   -0.263448
C      2.579662    0.947601    1.200791
C      1.842244   -0.482851   -0.579342
C      3.657894   -0.079690    1.258705
C      3.228219   -0.273227   -1.149592
C     -5.053713   -1.792974    0.597070
C     -4.073232    0.344028    0.699113
C      0.548620   -0.161772    1.345892
C     -1.602143   -1.233297    1.779743
C     -0.729632   -0.634939    0.699482
C     -3.938731   -0.994257    0.910652
C      5.586283   -0.176988   -0.357643
C      6.343326    0.952501   -0.025647
C     -6.223258   -1.278175    0.103835
C     -5.265439    0.879084    0.194411
C     -6.336897    0.075608   -0.102967
N      1.464823    0.474596    0.422837
N      4.219538   -0.178830   -0.090944
O     -0.507184   -1.577126   -0.310491
O      5.727631    2.047539    0.554936
O     -7.331310   -2.048334   -0.210810
O     -5.393173    2.248770   -0.019075
O     -7.510984    0.606818   -0.600736
O     -2.853603   -1.640353    1.392148
H      5.864034    4.044063    1.183395
H      7.128530    3.507468    0.018936
H      7.176446    3.007243    1.740463
H     -8.412998   -3.615715    0.475876
H     -7.586551   -3.898015   -1.103523
H     -6.673767   -3.935187    0.484418
H     -4.151420    3.190815    1.388271
H     -3.342467    2.730071   -0.152584
H     -4.449679    4.110052   -0.170123
H     -7.431212   -0.245230   -2.451199
H     -6.913194    1.463082   -2.423152
H     -8.693007    1.026118   -2.274277
H      8.160079   -2.008384   -1.624694
H      9.418347   -0.045644   -1.035885
H      5.747853   -2.139437   -1.216920
H      8.307805    1.862925   -0.015977
H      2.992595    1.835030    0.636660
H      2.263958    1.351526    2.184083
H      1.797322   -1.493157   -0.155337
H      1.149503   -0.416316   -1.433313
H      4.444899    0.142879    2.004965
H      3.234600   -1.076460    1.499564
H      3.467313   -1.213091   -1.717878
H      3.276893    0.574242   -1.862966
H     -4.988973   -2.852236    0.747452
H     -3.270453    1.011286    0.932387
H      0.298446    0.456997    2.218924
H      1.015125   -1.093905    1.783208
H     -1.013918   -2.069275    2.268781
H     -1.638032   -0.459814    2.610707
H     -1.232026    0.245651    0.287795
H     -1.339126   -2.133723   -0.426226
