26

C      0.044292   -2.177164   -1.564523
C     -2.869498    0.661684    1.324430
C     -2.011556   -0.190558    1.996604
C     -2.619432    0.954231   -0.000181
C     -0.931488   -0.729311    1.341431
C     -1.528047    0.406923   -0.654055
C      0.491558   -1.034837   -0.658103
C     -0.686721   -0.439968    0.036457
C      1.862523    0.923249   -1.059485
N      2.199244    0.252925    1.228576
N      1.183012   -0.062677   -1.454472
N      2.066909    1.251231    0.306376
S      2.607761    1.972177   -2.326383
H     -0.390026   -2.955571   -0.904015
H      0.981267   -2.611943   -1.984557
H     -0.623330   -1.844855   -2.363223
H     -3.729356    1.088652    1.851484
H     -2.237420   -0.400872    3.041434
H     -3.283536    1.625113   -0.551979
H     -0.268756   -1.392307    1.873803
H     -1.368476    0.659627   -1.684863
H      1.174166   -1.517717    0.069962
H      1.830389    0.428044    2.164771
H      3.005306   -0.362822    1.142979
H      2.113786    2.274209    0.588695
H      2.987432    3.222539   -1.761164
