39

C      0.416762   -1.257437   -1.269937
C     -0.713210   -3.084588    0.740844
C      4.219616    1.927614   -0.318369
C     -3.161835    2.692200   -0.289284
C      3.237282    2.289249    0.576534
C      4.244587    0.638161   -0.769650
C     -2.646583    2.010152   -1.367043
C     -3.381251    2.032264    0.909462
C      2.309079    1.387702    1.005959
C      3.291105   -0.276822   -0.324764
C     -2.351619    0.659583   -1.236711
C     -3.077350    0.686342    1.008616
C      1.301035   -0.899964    1.037726
C     -2.234906   -1.437008    0.043793
C      0.069700   -0.890934    0.152840
C      2.314797    0.072061    0.561040
C     -2.565689   -0.000401   -0.054306
N     -0.985375   -1.692521    0.668516
H     -0.467277   -1.677054   -1.781276
H      1.189368   -2.054154   -1.315562
H      0.725975   -0.361696   -1.873787
H     -0.733157   -3.420598    1.792091
H      0.244275   -3.379805    0.234075
H     -1.508853   -3.686458    0.221349
H      4.946357    2.665341   -0.644256
H     -3.399434    3.749225   -0.370580
H      3.214036    3.309896    0.936467
H      5.016891    0.359458   -1.471040
H     -2.488394    2.555863   -2.285191
H     -3.791799    2.588338    1.758953
H      1.543990    1.668900    1.702917
H      3.365634   -1.273582   -0.714926
H     -1.946128    0.172811   -2.130209
H     -3.269854    0.212708    1.978448
H      1.701291   -1.938121    1.009524
H      1.054179   -0.678275    2.075044
H     -3.088861   -1.906555    0.620951
H     -2.302333   -1.924902   -0.962037
H     -0.292050    0.163007    0.143780
