26

C     -0.281609    1.908923   -0.292378
C      3.622574   -1.166375    0.299891
C      2.943637   -0.585872    1.350376
C      3.022117   -1.253364   -0.948320
C      1.676888   -0.090334    1.179638
C      1.745061   -0.745678   -1.091024
C     -0.333686    0.372620   -0.267190
C      1.056863   -0.163969   -0.050547
C     -2.442231   -0.280630    0.767963
N     -2.932713    0.533192   -1.482841
N     -1.218781    0.000061    0.776565
N     -3.262414   -0.282073   -0.393143
S     -3.241606   -0.716507    2.316950
H     -0.050136    2.245719   -1.303558
H      0.444014    2.267258    0.463429
H     -1.296692    2.243827   -0.000893
H      4.622187   -1.566018    0.403424
H      3.437147   -0.533236    2.307952
H      3.520060   -1.700762   -1.797336
H      1.136974    0.365340    1.993452
H      1.269700   -0.809870   -2.062279
H     -0.630301    0.069571   -1.271229
H     -2.891837    0.040721   -2.376438
H     -3.440656    1.434567   -1.492207
H     -4.115284   -0.901185   -0.420616
H     -2.359278   -0.685929    3.390360
