31

C      2.835331    1.162141    0.003522
C      2.293704   -1.073664    0.997837
C     -3.319934    0.999839   -0.213322
C     -1.346051    0.432091    1.227221
C     -0.030025    0.949168    0.772906
C     -1.562617   -0.563791   -1.069660
C      2.048495   -0.122166   -0.142159
C     -2.262940   -0.041165    0.160910
C      0.604681    0.193205   -0.333179
C     -0.197984   -1.066369   -0.578930
S      0.571593   -2.169836   -1.760632
H      3.289877    1.457883   -0.986906
H      2.144186    1.955390    0.332774
H      3.665755    1.010388    0.728659
H      2.779835   -2.018719    0.661978
H      1.377875   -1.345644    1.539947
H      2.992590   -0.561981    1.719305
H     -2.856045    1.995076   -0.052292
H     -3.610320    0.814788   -1.261561
H     -4.223174    0.843313    0.400816
H     -1.171999   -0.358105    2.010278
H     -1.865418    1.259283    1.783926
H      0.669359    0.916677    1.658531
H     -0.107871    2.023975    0.512472
H     -1.381823    0.326467   -1.732026
H     -2.123687   -1.332983   -1.597019
H      2.412068   -0.617344   -1.073880
H     -2.833821   -0.923596    0.577532
H      0.518142    0.798167   -1.275877
H     -0.360736   -1.612072    0.382254
H      1.050954   -3.330413   -1.124531
