29

C     -2.938616    0.427453    0.942431
C     -3.069530   -1.075134   -0.966127
C      1.491283    1.579876   -0.298047
C     -0.866825   -0.393070   -0.144928
C     -0.039743    0.067868    1.017964
C      2.140505   -0.742274    0.231122
C     -2.260987   -0.777789    0.305105
C      1.354231    0.468811    0.667407
C      3.567866   -0.390423    0.125494
O      4.367780   -1.304876   -0.235268
O      4.047439    0.885619    0.404103
H     -4.049659    0.310158    0.950276
H     -2.568209    0.621170    1.959176
H     -2.700195    1.291525    0.287327
H     -4.145830   -1.077797   -0.759035
H     -2.694346   -2.029744   -1.392012
H     -2.780831   -0.284210   -1.689304
H      2.263405    1.298629   -1.046489
H      1.900223    2.516802    0.182916
H      0.576985    1.801737   -0.882064
H     -0.380048   -1.281385   -0.598052
H     -0.980631    0.356330   -0.939333
H     -0.565255    0.885007    1.561165
H      0.024936   -0.778153    1.736054
H      1.740087   -1.043281   -0.774420
H      1.959320   -1.559384    0.958347
H     -2.267177   -1.649932    0.984814
H      1.832804    0.802919    1.636133
H      5.041018    1.073551    0.363258
