34

C     -0.703389   -2.597837   -0.773739
C      5.059332    1.125261    0.060628
C      4.646931    0.875425    1.352644
C      4.169597    0.815749   -0.946413
C      3.418586    0.344537    1.674996
C     -1.716856    0.992164   -0.527669
C     -2.796674   -1.050230   -0.085632
C     -2.796896    1.657774    0.024031
C     -3.868871   -0.395982    0.461798
C     -0.550253   -1.135086   -1.180594
C     -1.694628   -0.391418   -0.594444
C     -3.890433    0.987679    0.528252
C      2.914344    0.276892   -0.677561
C      2.550538    0.046635    0.625239
C      1.795215   -0.137678   -1.526641
C      1.187816   -0.519625    0.607386
N     -4.998412    1.664157    1.093975
N      0.723857   -0.631764   -0.732166
O      1.833903   -0.045007   -2.792565
O      0.542941   -0.851501    1.655604
H     -1.515180   -3.081743   -1.326612
H      0.291393   -3.067532   -0.958553
H     -0.839911   -2.593771    0.323335
H      6.049021    1.550571   -0.158881
H      5.323168    1.106623    2.184853
H      4.420330    0.982977   -1.985436
H      3.082819    0.144133    2.677256
H     -0.865697    1.531896   -0.919395
H     -2.850051   -2.140822   -0.103817
H     -2.809289    2.744691    0.074023
H     -4.722011   -0.942127    0.854222
H     -0.589239   -1.084112   -2.291550
H     -5.133649    1.668467    2.118159
H     -5.668352    2.150605    0.491195
