22

C      2.792963   -0.410302    0.567287
C     -0.504860   -0.253436    0.441173
C      0.199039    0.292073   -0.767859
C     -1.879288    0.391961    0.487694
C     -2.667344   -0.087965    1.664240
N     -2.620394    0.143296   -0.746708
O     -3.576116   -0.925901    1.546524
O     -2.381985    0.411770    2.927508
O      2.684963    0.665515   -2.042758
O      1.845569   -1.738135   -1.623233
P      1.857766   -0.367458   -0.985539
H      3.333357   -1.380449    0.665098
H      2.120727   -0.289885    1.451110
H      3.533570    0.408711    0.640283
H     -0.661105   -1.351210    0.388469
H     -0.007738   -0.038433    1.392235
H      0.282849    1.388581   -0.636223
H     -0.393292    0.050801   -1.649788
H     -1.809569    1.494936    0.586021
H     -2.438491   -0.817769   -1.123788
H     -2.279928    0.811056   -1.476649
H      2.569307    1.602242   -1.705096
