32

C     -0.715580    2.529767   -1.073333
C     -2.890362    0.416835   -0.641691
C     -2.844585   -1.405800    0.984840
C      0.358008    1.519009   -0.838415
C      3.778046   -1.690290    0.224483
C      2.703966   -2.098389   -0.558732
C      3.756436   -0.579257    1.035582
C      1.543825   -1.308266   -0.495288
C      2.575573    0.175836    1.064618
C     -2.165284   -0.067329    0.590330
C      1.503397   -0.201446    0.305046
C      0.219221    0.622300    0.339104
N     -0.818496   -0.265870    0.491293
H     -1.312687    2.322474   -2.009114
H     -0.248408    3.546330   -1.332271
H     -1.330157    2.737472   -0.197251
H     -2.278299    0.203105   -1.560386
H     -3.282459    1.430532   -0.578167
H     -3.814949   -0.233256   -0.834317
H     -3.736858   -1.239400    1.595916
H     -3.175498   -1.933361    0.063319
H     -2.132738   -2.068505    1.507438
H      1.331690    2.106436   -0.786470
H      0.479316    0.948376   -1.797813
H      4.673018   -2.287902    0.182574
H      2.719929   -2.965178   -1.192763
H      4.584576   -0.265694    1.641875
H      0.672323   -1.559864   -1.075836
H      2.554324    1.037488    1.692106
H     -2.466228    0.605369    1.475965
H      0.331227    1.256216    1.271695
H     -0.572287   -1.287739    0.505666
