34

C      4.993858    0.671741    0.005755
C     -3.859554    0.600512    0.473698
C     -3.002931    1.827450    0.218113
C     -2.896876   -0.470978    0.938794
C     -1.634596    1.246157   -0.190419
C      2.645720    0.662365   -0.853960
C      3.126653   -0.526645    1.121008
C      1.305260    0.275642   -0.768623
C      1.823455   -0.894460    1.191767
C      3.555923    0.258515    0.094768
C     -1.522370    0.111380    0.786646
C      0.847480   -0.517105    0.258726
C     -0.563583   -0.959555    0.409890
C     -0.988580   -1.754197   -0.791212
O     -1.898810   -1.399022   -1.573254
O     -0.365376   -2.967132   -1.099611
H      5.026205    1.770989    0.141495
H      5.378647    0.361681   -0.985699
H      5.562842    0.136364    0.769604
H     -4.668490    0.792095    1.196567
H     -4.325782    0.326129   -0.494711
H     -3.397070    2.453910   -0.607408
H     -2.921376    2.373101    1.180775
H     -3.037253   -0.691588    2.023835
H     -3.039860   -1.419840    0.402314
H     -1.670358    0.960976   -1.240400
H     -0.896759    2.025108    0.007766
H      2.947487    1.292651   -1.693707
H      3.834040   -0.849186    1.871348
H      0.647087    0.613140   -1.528869
H      1.507513   -1.519288    2.017989
H     -1.174827    0.538253    1.763903
H     -0.579843   -1.684692    1.263627
H     -0.757879   -3.644471   -1.729631
