22

C     -0.981437   -1.545085    0.635921
C     -2.871808    0.724677   -0.046833
C      1.721076   -0.924748   -0.005670
C      1.214789    1.354923   -0.333977
C      3.053206   -0.685528   -0.343758
C      2.534048    1.601495   -0.670200
C     -0.634888   -0.123967    0.366410
C      0.788862    0.084181    0.004755
N     -1.534070    0.550969   -0.530157
N      3.409170    0.555524   -0.660435
H     -0.573629   -2.252408   -0.137313
H     -2.073166   -1.684682    0.613841
H     -0.594824   -1.843785    1.618459
H     -3.173668   -0.057459    0.665525
H     -3.561029    0.751479   -0.942920
H     -2.955933    1.730077    0.467168
H      1.389230   -1.917799    0.264094
H      0.523319    2.193262   -0.351366
H      3.778430   -1.509465   -0.342424
H      2.890829    2.590613   -0.931835
H     -0.758028    0.404415    1.380663
H     -1.590479    0.003312   -1.450379
