22

C      1.143685    1.739933   -0.078091
C      2.111430   -1.045268    0.565827
C     -1.177193   -1.156356   -0.678731
C     -1.370639    0.854019    0.519543
C     -2.457160   -1.530199   -0.247008
C     -2.638476    0.481484    0.945525
C      0.717172    0.451913   -0.742266
C     -0.626183    0.038320   -0.297536
N      1.707179   -0.565508   -0.710219
N     -3.143518   -0.697393    0.550846
H      0.444547    2.531802   -0.461771
H      1.026810    1.736788    1.007826
H      2.142881    1.996726   -0.425951
H      1.967519   -2.164207    0.646812
H      3.235018   -0.928489    0.618887
H      1.669323   -0.574103    1.439789
H     -0.658042   -1.844548   -1.312709
H     -1.002346    1.816187    0.863764
H     -2.904806   -2.461937   -0.536057
H     -3.229605    1.111300    1.585768
H      0.596707    0.722619   -1.835044
H      2.445697   -0.513083   -1.419202
