21

C      3.066287   -0.283088    0.152765
C     -1.397116    1.984691   -0.110349
C     -0.105087    2.448401   -0.137971
C     -1.647356    0.631455    0.012043
C      0.947977    1.542853   -0.041580
C     -2.231090   -2.270990    0.274374
C     -0.624420   -0.270917    0.107782
C      0.673238    0.193416    0.080170
C     -0.893766   -1.721859    0.239006
O      1.726006   -0.678068    0.173392
O     -1.620186   -1.994438    1.488685
H      3.284309    0.610394    0.759161
H      3.671310   -1.143496    0.527972
H      3.446041   -0.082545   -0.875836
H     -2.196733    2.706545   -0.186701
H      0.145728    3.487277   -0.231225
H     -2.700039    0.323839    0.028051
H      1.961693    1.926555   -0.065100
H     -2.356163   -3.345376   -0.000558
H     -3.126620   -1.670909   -0.016389
H     -0.024015   -2.393741    0.082733
