22

C     -1.448015   -0.890130   -1.326387
C     -2.175448    0.668235    1.179178
C      2.168905    1.548619    0.164751
C      0.871506    1.016054    0.186919
C      3.211008    0.692702   -0.061336
C      1.748163   -1.105914   -0.230624
C     -0.737531   -0.926692    0.013064
C      0.603593   -0.315853   -0.006485
N     -1.556402   -0.599209    1.107975
N      2.986861   -0.602772   -0.252808
H     -1.971295    0.043614   -1.521622
H     -2.221059   -1.701607   -1.333865
H     -0.744044   -1.104208   -2.133671
H     -1.649116    1.296781    1.925367
H     -2.243079    1.242061    0.237495
H     -3.219682    0.529745    1.615853
H      2.314572    2.598692    0.322965
H      0.042995    1.699272    0.360192
H      4.224046    1.074643   -0.084154
H      1.592360   -2.162010   -0.388939
H     -0.539196   -2.062730    0.140601
H     -1.259141   -0.939294    2.024970
