22

C      1.001616    0.272301    1.803701
C      2.973414   -0.423667   -0.214291
C     -2.850708    0.912100   -0.465029
C     -1.489860    1.084422   -0.222092
C     -3.377406   -0.372199   -0.407433
C     -1.233899   -1.230588    0.115310
C      0.772198    0.290582    0.310729
C     -0.663255    0.026360    0.069529
N      1.582193   -0.706050   -0.384799
N     -2.545879   -1.384965   -0.119934
H      0.893636   -0.760853    2.163549
H      0.158643    0.873640    2.256428
H      1.976196    0.732192    2.079423
H      3.507955   -0.296159   -1.197818
H      3.461620   -1.291437    0.263357
H      3.184381    0.488818    0.354914
H     -3.477387    1.754828   -0.693363
H     -1.129557    2.117159   -0.280381
H     -4.423238   -0.576369   -0.584747
H     -0.627510   -2.093023    0.340999
H      1.011422    1.303354   -0.085945
H      1.295424   -0.720448   -1.368224
