37

C     -3.577708   -0.896796    0.124781
C     -1.105157   -0.539172    0.001111
C      3.647874   -0.279975   -1.092548
C     -4.805700   -0.533916    0.631342
C     -0.852841   -1.509863   -0.844094
C      4.484480    0.814550   -0.534985
C     -2.595180    0.842274    1.392443
C     -2.464568   -0.210000    0.502933
C      2.261473   -0.416740   -0.467942
C     -4.956087    0.504193    1.512498
C     -3.821457    1.191841    1.887708
C      0.454664   -1.870454   -1.362932
C      3.938757    2.167435   -0.709734
C      2.388598   -0.690997    0.995949
N      1.574197   -1.404072   -1.167082
O     -6.214513    0.869476    2.026294
O     -3.946647    2.265823    2.794236
O      0.431245   -2.981276   -2.276381
O      2.888539    2.347991   -1.361223
O      4.552093    3.297761   -0.168450
O      2.916674    0.118392    1.792054
O      1.914703   -1.883352    1.545227
H     -3.537483   -1.724008   -0.563875
H     -0.267593    0.056175    0.352330
H      4.198643   -1.258391   -0.960050
H      3.575074   -0.163212   -2.192729
H     -5.707523   -1.087920    0.327020
H     -1.753106   -2.081069   -1.163845
H      4.771315    0.626258    0.541038
H      5.498852    0.817247   -1.055622
H     -1.704747    1.392581    1.695847
H      1.787681    0.573250   -0.569419
H     -7.008494    0.343491    1.726066
H     -4.847339    2.499848    3.138538
H      1.220377   -3.105778   -2.930320
H      4.319809    4.198203   -0.565237
H      2.341097   -2.289796    2.365768
