22

C     -1.169164    2.001191    0.397750
C     -2.221301   -1.407595   -0.260878
C      2.335001   -0.462171   -1.092749
C      3.033688   -0.619862    0.070709
C      1.031575   -0.096459   -1.033607
C      2.439015   -0.415166    1.283067
C     -1.015363    0.523782    0.289526
C      0.417016    0.111329    0.193496
N     -1.772953   -0.104465   -0.755518
N      1.133216   -0.049575    1.327069
H     -2.156825    2.217347    0.874095
H     -0.410615    2.372869    1.112046
H     -1.023780    2.548642   -0.542490
H     -3.265826   -1.302270    0.018963
H     -2.023707   -2.159846   -1.052912
H     -1.648086   -1.715616    0.663628
H      2.848629   -0.658121   -2.037239
H      4.074806   -0.882450    0.041498
H      0.423428    0.053212   -1.910583
H      2.918332   -0.521208    2.242171
H     -1.386115    0.114990    1.274984
H     -2.560969    0.451445   -1.103026
