35

C     -1.079855    4.118546    0.135470
C      0.287113    3.951204    0.102063
C     -1.893466    3.010023    0.135952
C      0.851691    2.690923    0.068190
C     -0.631554   -3.312209   -0.164356
C     -2.071960   -2.971329   -0.115890
C     -2.305605    0.600292    0.162906
C      1.596790   -2.309440   -0.069236
C      4.262696    0.146032   -0.175687
C     -1.349136    1.718627    0.103054
C      0.230789   -2.124730   -0.110783
C      0.016621    1.586557    0.068371
C     -1.707402   -0.684168   -0.199897
C      2.444678   -1.212912   -0.008705
C     -0.252842   -0.816406   -0.090251
C      0.602738    0.258942   -0.027545
C      1.975176    0.093078    0.013835
N     -2.263471   -1.755440    0.647734
O      3.829459   -1.187916    0.038365
O      3.095935    0.888794    0.075255
H     -1.560388    5.077764    0.161700
H      0.894221    4.856696    0.103740
H     -2.965978    3.088718    0.161049
H      1.908925    2.634346    0.041697
H     -0.388590   -3.948869    0.711593
H     -0.418961   -3.907506   -1.077211
H     -2.431299   -2.756101   -1.163418
H     -2.710858   -3.792544    0.268012
H     -2.720424    0.573787    1.219636
H     -3.171161    0.827394   -0.511056
H      2.023404   -3.301103   -0.083052
H      4.540610    0.310803   -1.236669
H      5.072257    0.417104    0.534240
H     -2.047099   -0.968556   -1.243710
H     -1.663054   -1.800404    1.524603
