37

C     -3.815382    2.769550   -0.303243
C     -2.032366   -1.857461   -0.066548
C     -3.416719   -1.967285    0.102743
C     -2.254675    0.471621   -0.262940
C      4.725612    0.931909    0.207222
C      2.566299    1.950668    0.126793
C     -1.426923   -0.644720   -0.251326
C      3.939027    2.054624    0.110800
C     -4.211568   -0.842416    0.086698
C      4.145299   -0.342047    0.324285
C     -3.620810    0.390487   -0.098620
C      1.951950    0.720278    0.239855
C      2.745451   -0.408981    0.337970
C      2.065983   -1.683585    0.484942
C      0.645930   -1.850473    0.099192
C      0.028154   -0.561216   -0.417749
O      4.577384    3.282473   -0.001978
O     -5.598930   -0.935587    0.254754
O      4.930514   -1.444876    0.417245
O      2.651413   -2.679987    0.940723
O      0.627253   -2.762343   -0.955594
O     -4.436574    1.512336   -0.112134
O      0.585695    0.555350    0.259205
H     -4.514572    3.612875   -0.149123
H     -2.962885    2.903555    0.386636
H     -3.403659    2.769833   -1.352934
H     -1.513215   -2.804359   -0.042799
H     -3.890387   -2.928530    0.248715
H     -1.769468    1.423421   -0.409341
H      5.801905    0.953493    0.199707
H      1.965841    2.832431    0.051713
H      0.069200   -2.199540    0.987767
H      0.217511   -0.418033   -1.499782
H      4.786490    3.758540    0.886098
H     -6.005631   -1.850782    0.388680
H      4.769280   -2.401230    0.495278
H      1.077572   -2.309995   -1.712913
