22

C     -1.482705   -1.081372    0.428029
C     -2.819882    1.042198   -0.858624
C      2.673598   -1.055904    0.440719
C      3.382114    0.032744   -0.019295
C      1.280794   -0.969889    0.485315
C      2.700279    1.158656   -0.415922
C     -0.849415    0.235424    0.138662
C      0.623593    0.168201    0.082589
N     -1.426375    0.800635   -1.055738
N      1.361871    1.199549   -0.356895
H     -1.243780   -1.830806   -0.363937
H     -2.584863   -0.950748    0.416942
H     -1.231797   -1.472364    1.434785
H     -3.034603    1.333746    0.191409
H     -3.425523    0.137923   -1.089115
H     -3.174707    1.840627   -1.552788
H      3.168985   -1.962888    0.763126
H      4.467036    0.006331   -0.069805
H      0.691662   -1.802914    0.839952
H      3.280219    2.001355   -0.773770
H     -1.108413    0.926412    0.986686
H     -1.248090    0.243084   -1.898408
