37

C     -4.661602   -1.666542    0.268377
C     -1.409415    2.027308   -0.439591
C     -2.601399    2.477947   -0.954484
C     -2.404131   -0.009951    0.166531
C      4.927900   -0.416506    0.357542
C      3.427448    1.287884   -0.239900
C     -1.268019    0.761745    0.141553
C      4.714063    0.862214   -0.044684
C     -3.726153    1.684357   -0.917390
C      3.880089   -1.315261    0.579485
C     -3.607009    0.436250   -0.349559
C      2.385993    0.438615   -0.032746
C      2.613529   -0.860279    0.375429
C      1.447698   -1.696905    0.549879
C      0.068109   -1.161052    0.788147
C      0.044005    0.347771    0.684252
O      5.763877    1.769640   -0.269499
O     -4.947332    2.118160   -1.433108
O      4.161004   -2.575804    0.981799
O      1.549756   -2.935332    0.505954
O     -0.424666   -1.537769    2.027529
O     -4.727205   -0.380357   -0.301351
O      1.056178    0.801343   -0.208667
H     -4.605782   -1.527067    1.386830
H     -3.842497   -2.284217   -0.099934
H     -5.655188   -2.171118    0.105809
H     -0.508838    2.654886   -0.465931
H     -2.696669    3.456281   -1.399948
H     -2.330646   -1.008906    0.622745
H      5.939326   -0.779058    0.519798
H      3.242928    2.322197   -0.565599
H     -0.548861   -1.610668   -0.028167
H      0.209670    0.846421    1.654475
H      6.054971    2.328706    0.537778
H     -5.027230    3.031261   -1.846558
H      3.559410   -3.294953    1.184730
H     -0.053312   -2.421242    2.322173
