41

C     -3.086269    3.962984   -0.909704
C      0.000616   -4.588198    0.205498
C     -2.907545    3.423955    0.352958
C     -2.964354    3.121798   -1.995572
C     -0.358641   -3.744169    1.238008
C      0.154657   -4.041385   -1.045382
C      4.789401    0.969182    0.573968
C     -2.619043    2.092137    0.492492
C     -2.673231    1.783294   -1.832487
C     -0.564949   -2.390218    1.057875
C     -0.051324   -2.672030   -1.240838
C      3.525330    1.088853    1.105771
C      4.986882    0.305447   -0.614189
C     -2.177855   -0.209552   -0.383518
C      2.664154   -0.096876   -0.702967
C     -2.491379    1.228010   -0.575767
C     -0.407961   -1.858676   -0.194050
C      2.394503    0.549795    0.474604
C     -0.632738   -0.409796   -0.389804
C      1.064380    0.682916    1.046839
N      3.922038   -0.211003   -1.223675
N     -0.026507    0.287557    0.650301
O      1.031038    1.400171    2.286012
H     -3.314814    5.016820   -1.025064
H      0.158130   -5.665045    0.381404
H     -3.011140    4.115435    1.179788
H     -3.108278    3.562813   -2.983734
H     -0.484944   -4.155742    2.230932
H      0.432856   -4.680230   -1.858018
H      5.662629    1.382234    1.055855
H     -2.485796    1.703105    1.486585
H     -2.578555    1.126962   -2.688519
H     -0.850152   -1.774969    1.926303
H      0.084476   -2.298918   -2.246700
H      3.409308    1.611414    2.031024
H      5.957662    0.183989   -1.073226
H     -2.586593   -0.758430   -1.258779
H     -2.615225   -0.644029    0.516060
H      1.900536   -0.550666   -1.282767
H     -0.370433   -0.078080   -1.430845
H      0.229134    1.229139    2.877245
