35

C      2.860843    2.180636   -1.248450
C      4.458171    0.544187   -0.253573
C      3.702967   -1.447487    0.789427
C     -4.466118    0.772520    0.354358
C     -1.669714    0.098639   -0.391635
C      3.150701    0.916792   -0.538865
C      4.726502   -0.628693    0.405019
C      2.351202   -1.112328    0.521861
C     -4.038669   -0.529531   -0.273584
C     -2.649109   -0.934878    0.112954
C      2.100730    0.073181   -0.142539
C      0.755436    0.502574   -0.461453
O     -4.492603    0.726393    1.728263
O      6.060597   -0.979620    0.680103
O      1.384158   -1.977655    0.935245
O     -4.951873   -1.505640    0.123419
O     -2.545381   -1.099568    1.496859
O      0.500153    1.582685   -1.068501
O     -0.331640   -0.268635   -0.107184
H      2.368907    2.044019   -2.217937
H      2.273931    2.882465   -0.626546
H      3.849580    2.715951   -1.378715
H      5.255554    1.205277   -0.565738
H      3.886345   -2.372246    1.306949
H     -5.525164    0.949495    0.017593
H     -3.839687    1.607837    0.039597
H     -1.754277    0.094660   -1.509395
H     -1.864118    1.099821    0.030316
H     -4.099123   -0.427302   -1.371150
H     -2.433267   -1.900658   -0.388105
H     -4.934069    1.562491    2.042420
H      6.241367   -1.833318    1.158578
H      0.434114   -1.925039    0.847304
H     -4.451527   -2.373056    0.174453
H     -2.314920   -0.243972    1.943612
