41

C      3.561308   -0.799717    1.452744
C      4.647175    1.379866    1.117758
C     -0.440198   -0.894307   -2.354007
C      2.018387   -0.380025   -0.961115
C      3.194317    0.484961   -0.613906
C     -3.520075   -1.138528    1.167459
C     -2.292183   -1.364827    0.579086
C      0.717063    0.167290   -0.416461
C     -3.564276    0.957097    0.069367
C      3.347832    0.599940    0.876625
C     -4.158016    0.042056    0.903175
C     -1.681347   -0.464805   -0.256552
C     -2.337042    0.729867   -0.518129
C     -5.469942    0.304750    1.520611
C     -0.374686   -0.792251   -0.836190
O     -1.744158    1.685402   -1.373155
O     -6.007224   -0.517259    2.271930
O     -6.094132    1.510762    1.234723
O      0.015473   -2.051992   -0.386257
H      3.673067   -1.559334    0.652404
H      2.668699   -1.062166    2.083788
H      4.456755   -0.833534    2.078926
H      5.493456    0.705928    1.249168
H      4.858847    2.033574    0.235335
H      4.461839    2.043783    1.987362
H     -1.388519   -1.431796   -2.582456
H     -0.378497    0.095429   -2.842207
H      0.383483   -1.562205   -2.671251
H      1.931550   -0.361247   -2.084190
H      2.127861   -1.428030   -0.672880
H      2.964587    1.510637   -1.014500
H      4.112351    0.075129   -1.044922
H     -4.009215   -1.842150    1.827464
H     -1.826369   -2.329120    0.826883
H      0.583618    1.179238   -0.838649
H      0.791996    0.248316    0.666383
H     -4.062370    1.894736   -0.145475
H      2.504607    1.122332    1.340298
H     -2.278552    2.528720   -1.516450
H     -7.119360    1.535709    1.233247
H      0.231888   -2.022228    0.588752
