35

C     -1.064383    0.205121    2.189161
C     -3.326058    0.912139    1.565377
C     -4.208865    0.526008   -0.618449
C      3.574479    0.658186    0.701622
C      1.583246   -1.525468    0.271045
C     -2.126370    0.298312    1.196528
C     -4.344970    1.013590    0.648177
C     -2.999135   -0.086008   -0.970001
C      2.724830    0.550473   -0.536985
C      2.366154   -0.886388   -0.836725
C     -1.946250   -0.215942   -0.095770
C     -0.679446   -0.825423   -0.371683
O      4.755615   -0.065550    0.552508
O     -5.558828    1.629844    1.007222
O     -2.885540   -0.568855   -2.249567
O      3.480946    1.076165   -1.587099
O      3.562530   -1.601221   -0.975734
O     -0.414836   -1.315608   -1.492610
O      0.354856   -0.931332    0.550864
H     -0.797634   -0.814997    2.524215
H     -1.434295    0.695468    3.143993
H     -0.212734    0.838119    1.889378
H     -3.470229    1.310931    2.562183
H     -5.004541    0.595200   -1.364115
H      3.052815    0.348738    1.621760
H      3.880045    1.729288    0.809885
H      2.208275   -1.441436    1.197276
H      1.468434   -2.625759    0.120028
H      1.829746    1.177507   -0.441773
H      1.852427   -0.922623   -1.821830
H      5.252136    0.307438   -0.225915
H     -6.331408    1.111961    1.402400
H     -2.170076   -1.023267   -2.728401
H      2.948197    1.156186   -2.407444
H      4.080865   -1.290797   -1.745947
