37

C      0.135263   -2.507455   -0.597734
C     -2.463262    2.269092   -0.439345
C     -3.774789   -0.101302    0.275088
C      4.479205    0.442310    0.719599
C      3.821728    1.339994   -0.105872
C      3.829279   -0.649546    1.261723
C      2.488063    1.108585   -0.374114
C      2.490033   -0.856357    0.974388
C     -0.316003    1.129145    0.228151
C     -1.772555   -1.274758    0.223096
C     -0.285211   -1.345303    0.319842
C     -1.724355    0.985652   -0.334180
C      1.820142    0.002264    0.171660
C      0.417402   -0.130885   -0.190977
N     -2.356297    0.002388    0.538803
O      0.341852   -0.145304   -1.606660
H     -0.753478   -3.122247   -0.871857
H      0.520893   -2.119116   -1.562811
H      0.850167   -3.175200   -0.132175
H     -2.458391    2.582945   -1.522342
H     -1.906745    3.058592    0.095313
H     -3.531648    2.217640   -0.150012
H     -4.313143    0.649673    0.891936
H     -4.112983   -1.102779    0.632141
H     -3.959804   -0.027454   -0.794148
H      5.526557    0.604192    0.944199
H      4.318054    2.185862   -0.522105
H      4.346945   -1.347719    1.905766
H      1.987789    1.824278   -1.012772
H      1.965473   -1.700163    1.392705
H     -0.349900    1.119092    1.348087
H      0.147907    2.042815   -0.176900
H     -2.095974   -1.627984   -0.783292
H     -2.197294   -2.000769    0.951719
H     -0.038816   -1.587276    1.361365
H     -1.595587    0.497881   -1.345052
H      0.519482    0.759216   -1.963740
