57

C     -2.617211    2.051723   -1.609806
C      5.517308    0.810228    1.155958
C     -2.689676    3.664813    1.888705
C      2.938440    3.287673   -0.151972
C      0.782747    0.610543   -2.697854
C      1.521355   -1.757177   -2.519515
C     -2.872776    2.933054   -0.445745
C      4.849795    2.051465    0.745122
C     -2.551191   -3.971072   -0.640318
C     -2.914186   -4.432240    1.667965
C     -2.012860   -3.176753   -1.616153
C     -2.720856   -4.071005    2.998770
C     -2.385433    2.727152    0.761335
C      3.611228    2.003220    0.266137
C     -2.370059   -3.628386    0.700678
C     -1.308484   -2.062510   -1.234511
C     -1.996293   -2.929813    3.277866
C     -1.115680   -1.701814    0.096954
C     -1.658620   -2.503778    1.065165
C     -0.342964   -0.479983    0.351822
C      0.907506   -0.474960   -0.493521
C     -1.538221    1.566068    0.985899
C      2.892493    0.750510    0.135735
C      0.588255   -0.674187   -1.953408
O     -1.852864   -2.650878    4.507525
O     -1.066079    1.360050    2.151143
O      3.392118   -0.348259    0.463651
O     -1.484765   -2.176011    2.326634
O     -1.184322    0.637471    0.034227
O      1.605943    0.758266   -0.368750
O     -0.729643   -1.203389   -2.157511
H     -2.981623    1.024044   -1.398712
H     -1.543482    2.100028   -1.859682
H     -3.224353    2.414675   -2.457634
H      5.020781    0.287127    2.002669
H      6.558646    1.074840    1.488119
H      5.671968    0.104917    0.313198
H     -2.263263    3.259499    2.813459
H     -3.768785    3.801222    2.029167
H     -2.266195    4.665496    1.623278
H      3.548655    4.141547    0.207065
H      1.950705    3.292348    0.320368
H      2.839826    3.274366   -1.259904
H      1.699398    0.508985   -3.349745
H      0.986648    1.482344   -2.047706
H     -0.090355    0.878116   -3.327997
H      2.565568   -1.391450   -2.453128
H      1.303135   -1.970773   -3.565026
H      1.368484   -2.690714   -1.939673
H     -3.509556    3.820952   -0.586543
H      5.333931    3.026072    0.817187
H     -3.113397   -4.858421   -0.900343
H     -3.475203   -5.317876    1.407267
H     -2.150759   -3.437782   -2.649120
H     -3.134815   -4.679675    3.798288
H     -0.057280   -0.453106    1.427612
H      1.536315   -1.326799   -0.144695
