52

C      5.521954    1.369371    0.802906
C      4.031511    1.808216   -1.090202
C     -3.488850   -2.223114   -2.126786
C      1.469970   -1.904525   -2.358796
C     -5.869222   -0.947520    0.644634
C     -0.701092    1.486692    3.361165
C     -1.010526    2.719319    2.817663
C     -0.679558    0.392131    2.539034
C     -1.285772    2.817655    1.478067
C      4.017175   -0.373328    0.000836
C      4.117314    1.099960    0.254278
C     -2.240805   -1.827721   -1.434878
C      0.227183   -1.664718   -1.544129
C     -0.957149    0.440339    1.150471
C     -1.253780    1.669801    0.659997
C     -2.192997   -1.232313   -0.255333
C      0.281487   -1.078243   -0.375311
C     -0.947394   -0.838136    0.447215
C     -3.482060   -0.959011    0.406046
C      1.578158   -0.646102    0.136426
N     -1.020991   -2.074482   -2.141288
N     -1.474520    1.898856   -0.695040
O     -3.443961   -0.388962    1.537763
O      1.671405   -0.070161    1.277696
O     -1.010912    3.114382   -1.227071
O     -2.040931    1.177703   -1.472099
O     -4.706779   -1.265429   -0.093251
O      2.780344   -0.799296   -0.511939
H      5.886343    0.471950    1.370939
H      6.200371    1.573436   -0.045001
H      5.497457    2.273261    1.436496
H      3.097389    1.552475   -1.630673
H      4.871484    1.380228   -1.708805
H      4.172639    2.900814   -0.956820
H     -3.236673   -2.757735   -3.071281
H     -4.008914   -2.966112   -1.454682
H     -4.158456   -1.368069   -2.312083
H      1.182341   -2.361242   -3.355548
H      2.145364   -2.561585   -1.805316
H      1.945725   -0.962674   -2.619167
H     -5.659623   -1.112218    1.728983
H     -6.644575   -1.710722    0.373067
H     -6.223173    0.082510    0.471934
H     -0.489383    1.444718    4.416799
H     -1.040756    3.614659    3.428228
H     -0.430020   -0.559164    2.999777
H     -1.525230    3.774806    1.059521
H      4.847247   -0.752298   -0.640029
H      4.150061   -0.939477    0.970474
H      3.372873    1.468706    0.964571
H     -0.825382   -1.651116    1.253068
H     -1.016311   -2.536512   -3.062521
