21

C      0.345233    1.524850    0.256232
C     -1.021113    1.001834   -0.127644
C      1.453556    0.745414   -0.374495
C     -0.107337   -1.218301   -0.520211
C     -1.060021   -0.452598    0.361874
C      1.287752   -0.731554   -0.322478
N     -2.387404   -0.981235    0.377280
O      1.723108   -1.181905    0.930190
H      0.446054    2.584782   -0.032999
H      0.473568    1.459519    1.362156
H     -1.092373    1.042325   -1.232593
H     -1.796384    1.606371    0.345250
H      1.660456    1.141463   -1.404731
H      2.392090    0.994825    0.202428
H     -0.383582   -1.155525   -1.585173
H     -0.140294   -2.288739   -0.201531
H     -0.648996   -0.476422    1.399107
H      1.915106   -1.181862   -1.138445
H     -2.884070   -0.641990   -0.465262
H     -2.879758   -0.616861    1.234404
H      2.704410   -1.174390    0.936643
