36

C     -4.212854    0.838020    0.517294
C     -5.143739   -1.170985   -0.480127
C      5.718823    0.275103    0.304195
C      5.260370    1.563649    0.475306
C      4.836446   -0.737229    0.020286
C      3.909820    1.863819    0.365553
C      2.562892   -1.429249   -0.373707
C      1.196027   -1.096123   -0.478110
C      1.678776    1.169735   -0.022646
C     -1.473692   -0.673319   -0.534346
C     -3.870523   -0.573203    0.173826
C      3.478116   -0.432372   -0.089836
C      3.034459    0.844731    0.081345
C      0.767977    0.184875   -0.303493
C     -0.677907    0.544998   -0.409825
N     -2.819236   -0.807128   -0.657316
O     -0.906790    1.351188    0.709100
H     -5.043246    0.838820    1.298889
H     -4.656976    1.338239   -0.389054
H     -3.415651    1.449613    0.864300
H     -5.037461   -1.078116   -1.597001
H     -5.072205   -2.267561   -0.276471
H     -6.052348   -0.733290   -0.075522
H      6.799457    0.113939    0.404554
H      5.952841    2.378927    0.699476
H      5.167499   -1.741620   -0.114146
H      3.566906    2.884186    0.503262
H      2.901402   -2.439134   -0.509772
H      0.574204   -1.952195   -0.700834
H      1.365355    2.215655    0.124927
H     -1.018751   -1.202195   -1.479161
H     -1.100030   -1.405560    0.262229
H     -3.840623   -1.114354    1.173418
H     -0.745211    1.176051   -1.350126
H     -3.159999   -1.112300   -1.632154
H     -0.524130    0.934385    1.521369
