21

C     -1.223642    1.592699   -0.928175
C      0.022106    1.026275   -0.981123
C     -2.205213    0.981009   -0.179842
C     -0.715792   -0.733851    0.449872
C      0.278015   -0.140501   -0.290447
C     -1.966593   -0.188378    0.518563
C      1.626660   -0.748478   -0.351298
C      2.530461    0.023476    0.557953
N     -2.960876   -0.825254    1.288091
O      2.101659   -0.764200   -1.640036
O      2.252910    0.144174    1.778622
O      3.693109    0.630929    0.111065
O     -4.209740   -0.280918    1.356870
O     -2.707041   -1.867504    1.896292
H     -1.406651    2.511187   -1.478272
H      0.814460    1.488604   -1.564213
H     -3.201340    1.408529   -0.120548
H     -0.521633   -1.662722    1.003035
H      1.553471   -1.817307   -0.009718
H      1.737550   -1.539757   -2.142586
H      4.508120    0.761988    0.725895
