43

C      3.216066    1.700888    0.678270
C     -3.202108   -0.471647    0.056530
C     -0.654148   -0.305832    2.408145
C     -2.462675   -1.376179   -0.900579
C      0.181123   -1.089421    1.485954
C     -2.641660    0.941566   -0.109052
C     -1.287098    0.926170    1.878591
C      2.476064   -0.368903   -0.342366
C      1.091865   -1.079911   -2.212877
C      0.887737    1.566526   -0.027476
C      2.238664    1.106368   -0.348189
C      1.284914   -1.185660   -0.716165
C     -1.073975   -1.639136   -0.509977
C      0.156888    0.009585   -2.576886
C      0.028319   -0.791148    0.032396
C     -0.246899    0.641411   -0.277052
N     -1.371292    1.060352    0.484734
O     -0.714304   -2.816824   -0.652766
O      0.045758    0.285912   -3.797549
O     -0.588486    0.727212   -1.656814
H      2.744938    1.571818    1.690007
H      3.388829    2.764237    0.488591
H      4.139805    1.119117    0.674539
H     -3.052937   -0.765279    1.100115
H     -4.252599   -0.435686   -0.232873
H     -1.419059   -0.997551    2.866496
H     -0.020599   -0.004330    3.294688
H     -2.550011   -0.896125   -1.910779
H     -3.028556   -2.315521   -0.964276
H      1.278824   -0.976222    1.729134
H      0.009176   -2.201358    1.602156
H     -3.356951    1.594743    0.474740
H     -2.679481    1.296713   -1.135142
H     -0.797114    1.858589    2.289824
H     -2.336688    0.981662    2.297048
H      2.964821   -0.709216    0.612424
H      3.260251   -0.575869   -1.126297
H      0.715996   -2.042205   -2.611719
H      2.078556   -0.827173   -2.690765
H      0.827979    1.881297    1.056740
H      0.659230    2.518301   -0.587931
H      2.569269    1.560900   -1.324360
H      1.491569   -2.242172   -0.489234
