16

C     -2.355460   -0.330791    0.053879
C     -1.311788   -0.715983   -0.651922
C      0.994720   -0.822429    0.240497
C      2.101421    0.097429    0.609613
C     -1.917806    0.718371    0.958940
C     -0.148380    0.051104   -0.248056
Cl     0.409547    1.071165   -1.608762
O      2.446392    0.228871    1.824497
O      2.741562    0.803487   -0.394684
O     -2.644087    1.345624    1.805443
O     -0.578819    0.920914    0.745980
H     -3.377074   -0.723703   -0.024360
H     -1.402995   -1.516539   -1.413015
H      1.330431   -1.492580   -0.564694
H      0.646714   -1.387764    1.145330
H      3.065620    1.752825   -0.187698
