32

C     -2.789769   -0.839874   -0.566817
C     -2.601853    1.202043    0.571486
C     -4.085549   -0.474190   -0.931957
C     -3.873935    1.576128    0.220857
C      4.063584    0.565573   -0.979428
C      2.154727    1.854407   -0.307514
C     -2.027095   -0.005049    0.192088
C     -4.631727    0.736143   -0.538664
C      3.468990    1.789510   -0.770440
C      3.396190   -0.645576   -0.743865
C      1.472153    0.694432   -0.066366
C      2.104218   -0.525884   -0.288228
C      1.316688   -1.714767    0.003005
C     -0.174946   -1.596091   -0.150511
C     -0.654226   -0.372579    0.587663
O     -5.915285    1.073809   -0.913082
O      4.186988    2.945949   -1.023783
O      4.054596   -1.825010   -0.977457
O      1.895461   -2.750779    0.357611
O     -0.726013   -2.746968    0.398393
O      0.165310    0.753650    0.393663
H     -2.415599   -1.793982   -0.900235
H     -2.003118    1.863870    1.170635
H     -4.642272   -1.171738   -1.531621
H     -4.286136    2.539382    0.543493
H      5.083258    0.561223   -1.338624
H      1.713181    2.831103   -0.152565
H     -0.431088   -1.515673   -1.237202
H     -0.640794   -0.632106    1.680145
H      3.824981    3.868238   -0.896609
H      3.694187   -2.728032   -0.865807
H     -0.695106   -3.517162   -0.216541
