15

C      1.375783    1.201677    0.084825
C      0.310739    1.094474   -0.672325
C     -1.329640   -0.705169   -0.291662
C     -1.399425   -0.396258    1.157444
C      1.871034   -0.100291    0.443564
C      0.043823   -0.340923   -0.854136
Cl     0.159121   -0.825810   -2.548217
O     -1.626694    0.785787    1.568260
O     -1.214823   -1.409512    2.101261
O      2.877942   -0.363497    1.161461
O      1.041614   -1.040109   -0.142065
H      1.796733    2.157118    0.379374
H     -0.272578    1.887640   -1.091623
H     -2.126781   -0.157596   -0.849376
H     -1.506851   -1.787531   -0.446785
