50

C      1.222241    1.341337   -1.480123
C      6.147276    1.134517   -0.586715
C     -3.221874    1.513203   -2.215884
C     -2.542397   -0.592222    2.015842
C     -2.235427   -2.371362    0.357773
C      3.492225    0.320819   -0.010022
C      2.134656   -0.081016    0.269737
C      4.469760   -0.205680    0.721992
C     -0.242167   -0.117127   -0.003899
C     -1.288862    0.318481   -0.640232
C      6.822186   -0.379809    1.231488
C      8.227371   -0.070357    1.062995
C     -5.052425    0.276756   -0.999714
C     -4.439554   -1.411040    0.616219
C      1.105220    0.365956   -0.378671
C      5.878434    0.161045    0.489430
C     -3.589088    0.531846   -1.165415
C     -5.307543   -0.233802    0.414017
C     -2.681709   -0.054693   -0.400123
C     -2.984053   -1.061056    0.643355
O      9.038965   -0.656251    1.840224
O     -5.093650    0.809041    1.286385
H      0.571058    2.242441   -1.258855
H      2.220276    1.628943   -1.771376
H      0.697567    0.873432   -2.364305
H      7.179510    1.466650   -0.688761
H      5.778056    0.675342   -1.544852
H      5.488882    2.017709   -0.381656
H     -4.076257    1.921762   -2.749207
H     -2.513929    0.969697   -2.908197
H     -2.629622    2.351430   -1.766457
H     -2.019130    0.361966    2.023867
H     -1.905220   -1.347864    2.516721
H     -3.477387   -0.568283    2.653242
H     -1.577276   -2.284721   -0.518308
H     -1.682253   -2.670287    1.264677
H     -3.024708   -3.141628    0.145049
H      3.767341    1.020124   -0.774168
H      1.943179   -0.807440    1.075914
H      4.227394   -0.914652    1.500886
H     -0.350355   -0.808507    0.791948
H     -1.101973    1.040532   -1.438083
H      6.491788   -1.086991    1.995820
H      8.599958    0.609598    0.334309
H     -5.617378    1.160086   -1.263380
H     -5.311790   -0.546188   -1.688210
H     -4.739339   -2.061269    1.467302
H     -4.571238   -2.070776   -0.295808
H     -6.376449   -0.531410    0.479591
H     -5.850293    0.961718    1.908032
