34

C      3.874661   -0.474942   -0.071600
C     -2.441328   -0.915775    1.588718
C     -3.197614   -0.205457    0.491233
C      0.284471    1.942038   -0.946796
C      1.214942    1.314664    0.052173
C     -1.041458   -0.302526    1.625190
C     -2.499548   -0.481699   -0.814909
C     -1.150372    1.500766   -0.742635
C      2.911311   -1.072898   -0.991369
C      1.032521   -0.160726    0.215207
C     -0.432179   -0.551679    0.266491
N      1.656050   -0.919138   -0.843083
N     -1.159467    0.055619   -0.807600
O      3.367496   -1.831205   -2.059304
H      4.694886   -1.211728    0.137980
H      3.437275   -0.204350    0.884790
H      4.374556    0.436572   -0.494933
H     -2.914861   -0.809545    2.581382
H     -2.307567   -1.972510    1.276688
H     -4.228800   -0.627286    0.437267
H     -3.204951    0.884050    0.665356
H      0.600914    1.754048   -1.996164
H      0.307261    3.053902   -0.757228
H      1.054893    1.794094    1.044494
H      2.251452    1.525821   -0.275106
H     -0.417561   -0.784177    2.382070
H     -1.135068    0.764537    1.873227
H     -2.410132   -1.580716   -0.950746
H     -3.065594   -0.084307   -1.688886
H     -1.762838    1.874998   -1.572395
H     -1.495137    1.903286    0.219485
H      1.453923   -0.459839    1.211743
H     -0.463512   -1.655933    0.101873
H      2.811376   -2.497959   -2.554006
