50

C     -6.267505   -0.506958   -0.665760
C     -6.492666    0.788200   -0.254216
C     -4.981714   -0.964312   -0.907220
C     -5.434023    1.660100   -0.073336
C      5.978559   -0.906321    0.108360
C      4.336795    0.838358    0.055425
C      6.969154    0.020874   -0.106277
C      5.328150    1.789276   -0.162534
C      1.655595   -0.686542   -0.920522
C      1.232142   -2.168221    0.936863
C      0.423381    0.174765   -0.630958
C     -0.185473   -1.896948    0.467173
C     -2.498512   -0.463132   -0.949024
C     -2.971406    2.062103   -0.150115
C      4.643233   -0.501481    0.191105
C      2.185136   -1.119626    0.430253
C     -3.926712   -0.106192   -0.730251
C     -4.161374    1.190987   -0.317134
C      6.621490    1.343667   -0.236614
C     -1.766316   -0.102564    0.348918
C     -1.960149    1.339088    0.677064
C      3.594908   -1.494863    0.446543
F      7.596884    2.269124   -0.448567
N     -0.392142   -0.468713    0.348417
O     -2.389113    1.423112    2.021955
O      3.993673   -2.677979    0.672805
H     -7.122660   -1.149387   -0.793455
H     -7.502408    1.145462   -0.065356
H     -4.778098   -1.978842   -1.232328
H     -5.591457    2.695361    0.252803
H      6.216411   -1.972499    0.218040
H      3.289392    1.142695    0.135948
H      8.027156   -0.268323   -0.175859
H      5.041574    2.822174   -0.262637
H      2.349046   -0.135203   -1.544784
H      1.269185   -1.601564   -1.478875
H      1.540572   -3.173407    0.608216
H      1.263528   -2.165080    2.046802
H      0.810765    1.116590   -0.185707
H     -0.068434    0.375879   -1.594711
H     -0.440358   -2.458419   -0.435096
H     -0.854791   -2.250477    1.281839
H     -2.455156   -1.538018   -1.120946
H     -2.087687    0.165200   -1.754857
H     -2.615106    2.313227   -1.168069
H     -3.211083    3.016745    0.363851
H      2.056291   -0.212613    1.090184
H     -2.264550   -0.758050    1.127439
H     -0.972232    1.885748    0.679960
H     -3.031899    2.146995    2.129703
