70

C     -0.590553    0.367407   -0.860313
C     -6.004120    3.508562   -0.352980
C      8.384365    0.207831    1.306277
C     -6.358713   -2.575212   -0.022116
C     -5.082392   -1.252349   -1.628830
C      3.410710    1.193294    0.362024
C      1.854510   -0.924370   -0.657682
C     -6.818036    0.319076    0.090221
C      0.599623   -1.742089   -0.648472
C     -7.073810    1.572489    0.923906
C     -1.845300   -1.868685   -0.730814
C     -2.703149   -1.409677    0.436761
C      6.148969   -0.322789   -0.542098
C     -5.558205   -0.326714    0.590957
C      2.685135   -1.133770    0.587360
C      4.685103   -0.627602   -0.782827
C     -0.548395   -1.122806   -0.743924
C     -5.913372    2.508416    0.775896
C      7.657587    1.327596    0.599790
C      6.235244    0.895056    0.314687
C     -3.971259   -2.167572    0.406928
C      8.359798    1.764590   -0.624346
C     -5.215264   -1.573072   -0.169447
C      3.894001   -0.230100    0.457190
O     -4.959377    2.486425    1.496961
O     -4.004894   -3.300197    0.861003
O      9.411884    1.186385   -0.970519
O      7.896202    2.801192   -1.415063
O      5.569804    0.719267    1.502066
O      4.765118   -0.319963    1.535901
H     -0.136378    0.859520    0.029099
H     -1.639536    0.719497   -0.918280
H     -0.084433    0.662179   -1.803579
H     -6.135440    4.520502    0.079199
H     -6.832284    3.280884   -1.038060
H     -5.020948    3.470651   -0.871640
H      9.361368    0.590788    1.678216
H      8.509473   -0.680482    0.651769
H      7.790803   -0.075416    2.183846
H     -6.967862   -2.313495    0.867309
H     -5.936643   -3.577588    0.141200
H     -7.009073   -2.536314   -0.914775
H     -6.109749   -1.049184   -2.005246
H     -4.664340   -2.134935   -2.164209
H     -4.471969   -0.348434   -1.776056
H      2.342101    1.216903    0.703940
H      3.448149    1.589075   -0.653790
H      3.927075    1.850385    1.123171
H      2.493529   -1.265680   -1.512819
H      1.636841    0.133217   -0.851674
H     -7.648560   -0.395737    0.254131
H     -6.759669    0.569318   -0.970957
H      0.618569   -2.818775   -0.566410
H     -7.211499    1.319609    1.982504
H     -8.011004    2.018038    0.546378
H     -1.709898   -2.950648   -0.644737
H     -2.378607   -1.632059   -1.679852
H     -2.849262   -0.324344    0.405616
H     -2.193266   -1.636897    1.407383
H      6.627156   -0.101450   -1.527792
H      6.678090   -1.201418   -0.115835
H     -4.719257    0.380799    0.570680
H     -5.695546   -0.625728    1.659190
H      2.090544   -0.800719    1.454684
H      2.959579   -2.196922    0.719534
H      4.287423   -0.120527   -1.686586
H      4.573807   -1.726138   -0.886549
H      7.604974    2.177710    1.338591
H      5.807589    1.736558   -0.313273
H      8.516934    3.456634   -1.883022
