28

C      2.464335   -1.500125    0.566071
C      2.896984   -0.098499    0.332048
C      1.357382   -1.747559   -0.126088
C      0.478983    0.534959    0.809019
C     -1.428540   -0.927707   -0.048950
C     -0.765044    1.223940   -1.229297
C      1.643627    0.557513   -0.152847
C      0.935688   -0.554800   -0.886823
C     -2.430804   -0.496410    0.927224
C     -0.361630    0.081275   -0.357125
N     -1.543781    2.229061   -0.519933
O     -2.344517    0.636933    1.448352
O     -3.468840   -1.329837    1.276414
H      3.002593   -2.185848    1.214268
H      3.603711   -0.133234   -0.538187
H      3.345574    0.369482    1.214290
H      0.867829   -2.706364   -0.105450
H      0.206897    1.516192    1.238351
H      0.594837   -0.294663    1.531757
H     -0.978529   -1.911920    0.189687
H     -1.979620   -1.095308   -1.021070
H      0.071617    1.738515   -1.737594
H     -1.442537    0.833206   -2.046025
H      1.777227    1.511793   -0.698603
H      1.029935   -0.581561   -1.964084
H     -2.476508    2.398577   -0.956109
H     -1.056922    3.164191   -0.506991
H     -3.999947   -1.231805    2.147694
