50

C      1.450702    1.423676    1.180236
C      6.446425    0.482381    0.263597
C     -3.026126    2.149043    1.879626
C     -2.546902   -0.339986   -2.106057
C     -2.552674   -2.008284   -0.289963
C      3.548715   -0.059974   -0.214531
C      2.124807   -0.312285   -0.435096
C      4.451680   -0.756368   -0.866606
C     -0.225512    0.022587   -0.105279
C     -1.232955    0.643821    0.475959
C      6.766309   -1.250291   -1.346465
C      8.192648   -1.052283   -1.177557
C     -4.976338    0.961097    0.796354
C     -4.576071   -0.796961   -0.840161
C      1.185741    0.356285    0.192963
C      5.866268   -0.517619   -0.658156
C     -3.509304    1.103172    0.917121
C     -5.294456   -0.456389    0.447041
C     -2.643691    0.375024    0.238149
C     -3.090210   -0.667992   -0.721993
O      8.981997   -1.767818   -1.846978
O     -6.668920   -0.535919    0.177798
H      0.840712    1.143822    2.095847
H      1.001896    2.387665    0.843372
H      2.466500    1.512745    1.537975
H      6.962395    1.308857   -0.296739
H      7.229580   -0.016838    0.900964
H      5.732717    0.980571    0.927854
H     -2.377305    1.613599    2.613415
H     -2.487106    2.926099    1.316421
H     -3.844793    2.616389    2.428021
H     -3.425271   -0.116565   -2.780046
H     -1.934015    0.607908   -2.075245
H     -2.002261   -1.182904   -2.567766
H     -1.950408   -1.884944    0.626563
H     -3.415851   -2.690901   -0.037165
H     -2.009111   -2.519325   -1.122681
H      3.877425    0.688949    0.470318
H      1.826042   -1.088410   -1.151344
H      4.145960   -1.536873   -1.585874
H     -0.448972   -0.750963   -0.818524
H     -0.934791    1.419238    1.186286
H      6.372686   -1.981552   -2.020245
H      8.624195   -0.339519   -0.523073
H     -5.499617    1.237435    1.746483
H     -5.380248    1.628005    0.014768
H     -5.008475   -0.150428   -1.644024
H     -4.890092   -1.834897   -1.100957
H     -4.976932   -1.175888    1.209632
H     -7.166996    0.203807    0.625768
