39

C      3.511581    0.391891   -0.906130
C      2.754002    0.442743    1.399794
C     -2.340120    3.336241    0.057820
C     -1.965187   -3.022679   -0.100968
C     -2.814401    0.999177    0.516855
C      0.354287   -2.479925   -0.395392
C     -2.505033   -0.427519    0.497649
C      1.521501   -1.582290   -0.265883
C     -0.721440    1.384888   -0.569206
C      2.324336    0.698252   -0.011073
C     -1.977002    1.903785    0.012028
C     -0.820446   -2.086899    0.050658
C      1.119887   -0.160004   -0.417667
C     -1.062780   -0.769203    0.694568
C     -0.095847    0.285407    0.303428
H      4.327307    1.069045   -0.588126
H      3.867335   -0.634316   -0.780091
H      3.278546    0.637748   -1.977111
H      3.184692    1.403153    1.802319
H      3.602740   -0.285499    1.407387
H      1.951906    0.164939    2.088565
H     -3.432587    3.492460   -0.090172
H     -2.093548    3.790650    1.041660
H     -1.796673    3.898743   -0.732527
H     -1.653756   -4.083364    0.103919
H     -2.809983   -2.808657    0.544246
H     -2.332262   -2.991772   -1.158849
H     -3.750206    1.326037    0.952305
H      0.506691   -3.446512   -0.859107
H     -2.850135   -0.865687   -0.484376
H     -3.129564   -0.926767    1.265728
H      2.227301   -1.822239   -1.086971
H      2.022776   -1.812414    0.692402
H     -0.818211    1.062137   -1.612378
H      0.013213    2.233794   -0.561636
H      2.066275    1.766520   -0.115422
H      1.022542    0.028892   -1.527956
H     -0.937820   -0.964528    1.802962
H      0.250085    0.853769    1.218724
