38

C      3.737586   -0.300884    0.612492
C      3.436134    1.399837   -1.157108
C     -3.253072   -2.049106   -1.829482
C     -2.030248   -2.260239   -1.246635
C     -3.873136   -0.824575   -1.702076
C      0.241206    0.242008    1.532300
C     -0.483713    1.386966    0.959810
C      2.745985    0.656210   -0.050167
C     -1.378227   -1.263222   -0.515728
C     -3.256568    0.174340   -0.989874
C      0.844978   -0.694643    0.524223
C     -2.015840   -0.052436   -0.403364
C     -0.091735   -1.725129    0.018193
C     -2.675109    2.022485    0.023739
N      1.587628   -0.065822   -0.518260
N     -3.616930    1.443169   -0.705426
N     -1.675592    1.101995    0.216824
O     -0.261080   -2.792642    0.907967
O     -2.587294    3.297296    0.553320
H      3.647668   -0.242698    1.731664
H      3.562141   -1.344497    0.336288
H      4.779127   -0.027141    0.363209
H      2.803735    1.452547   -2.065466
H      3.735242    2.427342   -0.871550
H      4.378693    0.853439   -1.453781
H     -3.741339   -2.848869   -2.397202
H     -1.562952   -3.217309   -1.355897
H     -4.848825   -0.638178   -2.159559
H      1.089818    0.649737    2.138391
H     -0.388648   -0.326636    2.212741
H     -0.805459    2.038381    1.821153
H      0.191580    2.065570    0.370580
H      2.450814    1.382521    0.730092
H      1.624474   -1.277670    1.114648
H      0.435773   -2.210377   -0.865734
H      1.050701    0.421468   -1.236101
H     -0.520495   -2.506237    1.809804
H     -3.277022    3.652997    1.224162
