28

C      2.155581    1.613731    0.063506
C      2.597390    0.418270    0.803614
C      1.157617    1.317856   -0.757282
C      0.235070   -0.369685    1.293080
C     -1.749223    0.174292   -0.198979
C     -0.654604   -2.035066   -0.284354
C      1.523860   -0.599828    0.535663
C      0.774409   -0.086636   -0.703738
C     -1.821370    1.612639   -0.075017
C     -0.469559   -0.516800   -0.029269
N     -1.334504   -2.195530   -1.554805
O     -1.909120    2.321103   -1.108322
O     -1.799235    2.274369    1.143475
H      2.631175    2.600336    0.214916
H      2.638102    0.589342    1.903196
H      3.551790   -0.005725    0.435007
H      0.716116    2.070355   -1.389507
H      0.230029    0.639421    1.728882
H     -0.000113   -1.186839    2.013445
H     -2.466247   -0.265511    0.567741
H     -2.232596   -0.132627   -1.171459
H      0.300128   -2.561947   -0.353232
H     -1.256297   -2.487359    0.509939
H      1.870856   -1.643409    0.459567
H      1.032900   -0.684432   -1.621127
H     -2.298305   -2.538939   -1.485633
H     -1.139340   -1.470635   -2.248847
H     -2.284512    3.149254    1.309540
