42

C     -5.633159    1.260505    0.414742
C     -4.452069   -0.380025    1.822810
C     -0.780793   -1.287706   -0.581329
C      4.582235    1.462239    0.364187
C      4.693329   -0.711722   -0.539644
C      1.742384   -0.862169   -0.495838
C     -3.227269   -1.519050   -0.589618
C      6.713087    0.534075   -0.096555
C     -0.884830    1.253754    0.474193
C      0.395632   -0.607501   -0.342073
C     -2.009903   -0.733364   -0.307776
C      3.924100    0.334419   -0.078991
C      5.955203    1.587836    0.366844
C      6.088426   -0.610874   -0.548026
C      2.459695    0.235933   -0.067152
C      0.354382    0.684366    0.194045
C     -2.048160    0.559416    0.228632
C     -4.375769   -0.509672   -0.682267
C     -4.429602    0.377803    0.519495
O      6.607223    2.730011    0.816184
O      6.881402   -1.658346   -1.010089
O     -4.049193    0.313649   -1.784543
O      1.587034    1.114192    0.327659
O     -3.250046    1.177689    0.527710
H     -5.572831    2.166894    1.062415
H     -6.566208    0.705044    0.545410
H     -5.652647    1.652077   -0.644476
H     -3.548737   -0.997127    1.941622
H     -5.389807   -0.950507    1.933035
H     -4.436591    0.375163    2.637855
H     -0.743469   -2.283938   -0.994966
H      3.970017    2.276220    0.723116
H      4.209233   -1.610179   -0.894143
H      2.140602   -1.778379   -0.889319
H     -3.193603   -2.042163   -1.562797
H     -3.436396   -2.281614    0.187846
H      7.793089    0.592902   -0.111001
H     -0.971908    2.246023    0.887801
H     -5.329343   -0.989081   -0.933813
H      6.855931    2.760865    1.815467
H      7.101598   -1.637078   -2.007986
H     -4.072268   -0.176059   -2.628665
