48

C      0.814713   -2.070534    0.944256
C      6.860726   -0.652936   -0.263233
C     -6.577998    1.003892   -1.790223
C      2.601313   -0.164272   -0.804430
C      3.973053   -0.371110   -0.696624
C     -1.794037   -1.339873   -1.577656
C     -0.716561   -1.988057   -0.792599
C      0.475783    0.781685   -0.081837
C      2.584866    1.209735    1.145217
C     -3.781476    0.096121   -1.144514
C     -2.554866    1.352989    0.906870
C      1.903099    0.613759    0.096798
C     -2.477842   -0.298696   -0.809075
C     -1.879526    0.347069    0.228089
C     -0.475538   -0.061600    0.628238
C      3.935772    1.012505    1.262312
C     -3.833954    1.750149    0.584585
C      4.645750    0.221178    0.344330
C     -4.453780    1.103960   -0.463000
N     -0.404816   -1.479730    0.497067
O      4.595128    1.618092    2.318366
O     -4.502320    2.766310    1.276274
O      6.014969    0.094232    0.564013
O     -5.725558    1.451636   -0.833949
H      1.362207   -2.603772    0.111333
H      1.460956   -1.413147    1.536317
H      0.559241   -2.922224    1.641105
H      6.336818   -1.401921   -0.852052
H      7.565459   -1.239157    0.407397
H      7.499443    0.067750   -0.853436
H     -7.187752    1.877660   -2.170983
H     -6.102331    0.605089   -2.715976
H     -7.292683    0.199407   -1.457952
H      2.137139   -0.653528   -1.648855
H      4.488389   -0.983280   -1.420992
H     -2.511107   -2.143575   -1.913236
H     -1.418337   -0.938139   -2.566125
H     -1.027139   -3.074859   -0.619949
H      0.252546   -2.023752   -1.367902
H      0.306990    0.821153   -1.205596
H      0.253857    1.858928    0.209232
H      1.980834    1.802415    1.814607
H     -4.227519   -0.435829   -1.971634
H     -2.061072    1.854053    1.730348
H     -0.443448    0.203794    1.730055
H     -1.182965   -1.874188    1.135228
H      4.071571    2.178773    2.967391
H     -4.047996    3.241845    2.042954
