39

C     -3.506407    0.192313   -0.878472
C     -2.625678    0.976436    1.251522
C      2.506835    3.201535    0.341608
C      1.668517   -3.120555   -0.658757
C      2.946395    0.797352    0.244916
C     -0.603826   -2.443482   -0.265682
C      2.481488   -0.568099   -0.025089
C     -1.585127   -1.442334    0.240121
C      0.734931    1.502202   -0.353955
C     -2.278559    0.822431   -0.208769
C      2.105845    1.792551    0.086789
C      0.676352   -2.137014   -0.159569
C     -1.139936   -0.128339   -0.431557
C      1.072201   -0.853815    0.450907
C      0.132686    0.271009    0.262137
H     -4.185843   -0.253331   -0.130091
H     -4.091638    0.958182   -1.428584
H     -3.193714   -0.557344   -1.644726
H     -3.602056    1.544784    1.273441
H     -2.828130    0.031229    1.764897
H     -1.898598    1.633605    1.782577
H      1.665573    3.880458    0.466298
H      3.070454    3.215723    1.317257
H      3.138945    3.597042   -0.491739
H      1.972772   -2.914214   -1.713952
H      1.261225   -4.158657   -0.674132
H      2.556459   -3.160282    0.018806
H      3.993780    0.961015    0.574841
H     -0.986219   -3.364277   -0.691271
H      2.571064   -0.733899   -1.135039
H      3.211357   -1.271087    0.427313
H     -1.376545   -1.330375    1.326634
H     -2.616375   -1.695734   -0.001136
H      0.801264    1.415921   -1.479224
H      0.112099    2.401616   -0.178288
H     -2.156721    1.806796   -0.637400
H     -1.006843   -0.370999   -1.485467
H      1.211623   -1.101761    1.551481
H     -0.209650    0.603400    1.291357
