46

C      5.393987   -0.162994   -0.227132
C     -2.450231    3.454737    0.471782
C      4.481706   -0.410552    0.973391
C     -2.037316    2.423826   -0.577726
C      3.120988    0.137938    0.585535
C     -3.190100   -0.899361   -0.810278
C     -2.163116   -1.945479   -0.935249
C      2.657233   -0.596104   -0.622432
C     -3.437111   -0.272781    0.496419
C     -1.359843   -2.292464    0.253605
C     -2.449539    0.637267    1.074541
C      1.315041   -0.167202   -1.136193
C      0.041046   -1.745134    0.265130
C     -1.451224    1.246662    0.140115
C      0.204221   -0.341017   -0.148892
O     -0.921026    0.275970   -0.656916
H      6.429586    0.041396    0.086492
H      5.006388    0.693989   -0.832750
H      5.375197   -1.044643   -0.902663
H     -1.878294    3.272588    1.395511
H     -3.540621    3.374730    0.663723
H     -2.282563    4.469257    0.041091
H      4.909319    0.109344    1.851773
H      4.410908   -1.506214    1.159251
H     -1.277271    2.871415   -1.261049
H     -2.923588    2.221222   -1.175852
H      2.466787   -0.002790    1.469287
H      3.290106    1.226971    0.364050
H     -4.196479   -1.319806   -1.136697
H     -3.006496   -0.129419   -1.620470
H     -2.634818   -2.900151   -1.330308
H     -1.422779   -1.714212   -1.763964
H      2.637761   -1.691407   -0.357258
H      3.434365   -0.507843   -1.407362
H     -3.697301   -1.095022    1.226780
H     -4.422273    0.283177    0.403821
H     -1.914260   -2.072631    1.194437
H     -1.217355   -3.418508    0.312351
H     -1.862449    0.197877    1.936955
H     -2.967843    1.514229    1.573368
H      1.099832   -0.743427   -2.059753
H      1.414423    0.894584   -1.462103
H      0.430923   -1.921010    1.312251
H      0.716424   -2.375441   -0.373553
H     -0.617949    1.668341    0.779499
H      0.485605    0.260094    0.767441
