39

C      3.081107    3.236462    0.060294
C     -5.796396   -0.298054   -0.227939
C      4.203684   -2.326666   -0.513262
C     -0.597243   -0.371604   -1.973482
C     -1.848169   -2.123278    0.420632
C      2.493224    1.875778    0.124500
C     -4.509277    0.393908   -0.433133
C      3.614479   -1.642454    0.667662
C     -3.140899   -1.491504    0.212806
C     -0.730911   -1.467152    0.160609
C     -3.233027   -0.249493   -0.198031
C      2.744200   -0.499711    0.421949
C      0.546447    0.451786    0.004144
C      3.277069    0.776554    0.353515
C      1.131104    1.714303   -0.049764
C      1.376106   -0.619420    0.247937
C     -1.984050    0.566383   -0.212446
C     -0.747162   -0.098110   -0.388893
O     -4.554749    1.601597   -0.832177
O      3.859473   -2.037631    1.843446
O     -4.287559   -2.265195    0.469849
O      4.642497    0.915043    0.525031
O      0.323545    2.796989   -0.280193
O     -2.175011    1.809621   -0.059722
O      0.633064   -1.806415    0.325696
H      3.102355    3.524748   -1.018416
H      4.134448    3.226930    0.390856
H      2.530547    3.978789    0.652815
H     -6.642680    0.334312   -0.541214
H     -5.862457   -1.210554   -0.885333
H     -5.934254   -0.652231    0.814911
H      3.458421   -2.426841   -1.322227
H      5.058355   -1.675382   -0.858321
H      4.665914   -3.281237   -0.215679
H      0.113985   -1.188587   -2.078525
H     -0.227164    0.559067   -2.404694
H     -1.581902   -0.623116   -2.337633
H     -1.791430   -3.155494    0.797108
H      0.654315    3.747857   -0.336204
