39

C     -3.493100   -0.408432    0.894660
C     -2.364911   -1.650930   -0.856402
C      2.633720   -2.908310   -0.495480
C      1.288785    3.431145    0.552646
C      2.943560   -0.526753   -0.372279
C     -0.733435    2.348533   -0.176100
C      2.356544    0.844666   -0.398773
C     -1.563890    1.158490   -0.460391
C      0.654641   -1.195827   -0.687909
C     -2.142129   -1.027550    0.491572
C      2.117265   -1.534445   -0.512956
C      0.478762    2.192574    0.276866
C     -1.157604    0.083781    0.516116
C      1.156021    0.905057    0.553666
C      0.279334   -0.296290    0.457099
H     -4.125974   -1.206323    1.328863
H     -3.355739    0.455825    1.558499
H     -3.995833   -0.060310   -0.031845
H     -2.176405   -2.754336   -0.794117
H     -1.778173   -1.234333   -1.668002
H     -3.440548   -1.592743   -1.198802
H      3.619472   -2.917703   -1.027817
H      2.748993   -3.303772    0.523946
H      1.979492   -3.588289   -1.079493
H      1.563790    3.384625    1.624343
H      0.755657    4.340965    0.263218
H      2.227018    3.412566   -0.072209
H      4.002891   -0.691594   -0.243184
H     -1.118478    3.346328   -0.339018
H      3.136532    1.539337   -0.026069
H      2.079013    1.180214   -1.402465
H     -2.616437    1.433751   -0.210736
H     -1.528685    0.860097   -1.501294
H      0.567974   -0.744771   -1.673429
H      0.131233   -2.166145   -0.563252
H     -1.934933   -1.788325    1.273906
H     -1.287820    0.575473    1.533054
H      1.619071    1.015078    1.574936
H      0.474324   -0.911320    1.388601
