39

C      3.530886   -0.830713    0.528064
C      2.717796    1.089971   -0.725039
C     -1.846752    3.572537    0.187599
C     -2.207207   -2.938856    0.182000
C     -2.585839    1.321290    0.691680
C      0.039149   -2.459011   -0.578528
C     -2.478306   -0.162139    0.841296
C      1.086096   -1.409531   -0.894058
C     -0.215012    1.556926   -0.066949
C      2.411575    0.221325    0.469699
C     -1.582757    2.086550    0.289324
C     -1.121078   -1.999677   -0.152736
C      1.135254   -0.549487    0.353067
C     -1.315363   -0.572333   -0.021724
C     -0.118188    0.194353    0.542386
H      3.858907   -1.033782   -0.511130
H      4.363663   -0.470670    1.166436
H      3.121643   -1.778054    0.930186
H      3.745130    0.851253   -1.131859
H      2.049000    0.887336   -1.594593
H      2.780304    2.171862   -0.483134
H     -0.988691    4.081349   -0.296811
H     -1.970544    3.923087    1.231690
H     -2.787142    3.760502   -0.348964
H     -2.407079   -3.008828    1.259954
H     -2.031895   -3.964822   -0.210721
H     -3.157753   -2.585200   -0.314025
H     -3.542952    1.831174    0.922909
H      0.244358   -3.507601   -0.699217
H     -2.242735   -0.336844    1.930411
H     -3.423973   -0.649421    0.553508
H      2.072702   -1.866896   -1.021988
H      0.801917   -0.830875   -1.798003
H     -0.225225    1.466130   -1.173531
H      0.542951    2.266839    0.319374
H      2.390929    0.828042    1.382765
H      1.179558   -1.314919    1.197484
H     -1.561524   -0.181302   -1.053909
H     -0.261800    0.340435    1.650311
