16

C      1.346567    0.848803   -0.418432
C     -0.899551    0.705867    0.413075
C      0.070442    0.063477   -0.521319
C      2.322731    0.100081    0.010786
C     -2.223786    0.051780    0.437717
C      1.782026   -1.240384    0.228942
Cl     3.992345    0.610712    0.279668
O     -3.093676    0.540014    1.203325
O     -2.569587   -1.045782   -0.312484
O      2.475139   -2.196324    0.643912
O      0.441110   -1.221460   -0.098424
H      1.443578    1.896749   -0.667312
H     -1.028303    1.763581    0.099435
H     -0.449959    0.701662    1.425995
H     -0.270048    0.046314   -1.574134
H     -3.339029   -1.625090    0.035562
