15

C      0.707587    0.835466   -0.641374
C     -1.434879   -0.406845   -0.559658
C      0.057225   -0.469390   -0.814008
C      1.662300    0.698200    0.252667
C     -1.730988    0.044157    0.821281
C      1.704095   -0.675678    0.718685
Cl     2.708988    2.029079    0.770572
O     -0.807579    0.325732    1.635586
O     -3.032346    0.177414    1.281718
O      2.525548   -1.123676    1.590876
O      0.716090   -1.341586    0.045623
H      0.433286    1.757456   -1.173665
H     -1.929583   -1.357445   -0.801206
H     -1.838871    0.355810   -1.272670
H      0.259129   -0.848695   -1.854428
