34

C      2.163412    2.160989    1.760048
C      1.118212   -1.887205    0.271473
C      1.897692   -0.849165   -0.519745
C     -0.082884   -2.365103   -0.476665
C      2.475768    0.215334    0.347689
C     -1.374821   -1.758573    0.016178
C     -2.681251    1.130011    0.016325
C     -1.820059    2.015759    0.304623
C      1.419252    1.173629    0.884024
C     -2.100081   -1.182655   -1.173673
C     -2.900606    0.004859   -0.901656
C     -0.475169    2.452659   -0.131702
O     -1.252538   -0.946840   -2.273617
O     -3.993476    0.018106   -1.629553
O     -0.339995    3.686178   -0.564014
O      0.699108    1.766645   -0.163124
H      2.870651    2.789587    1.172128
H      1.482285    2.825767    2.347940
H      2.776447    1.605277    2.502755
H      0.932257   -1.575896    1.316559
H      1.827594   -2.766023    0.352538
H      1.214334   -0.370190   -1.250030
H      2.698826   -1.316919   -1.130967
H     -0.187056   -3.476623   -0.416413
H      0.087148   -2.144830   -1.557916
H      3.185478    0.831360   -0.239920
H      3.048251   -0.248408    1.187706
H     -1.082088   -0.887401    0.667833
H     -1.963420   -2.444596    0.622923
H     -3.703790    1.095214    0.619114
H     -2.033267    2.805508    1.151097
H      0.737053    0.594813    1.497237
H     -2.778959   -2.014608   -1.530618
H     -1.864308   -0.936661   -3.078573
