33

C      2.144129   -0.668079    1.274990
C      3.506538   -0.745156    1.467266
C      2.522905    0.303220   -0.827763
C     -4.570661    1.062074    0.568859
C     -2.506376    1.600599    1.657325
C      1.615453   -0.135571    0.108737
C     -3.864067    1.783995    1.508560
C      4.405519   -0.300471    0.517808
C      3.902088    0.230987   -0.645704
C     -3.957530    0.139082   -0.250296
C     -1.897161    0.667557    0.826585
C     -2.602827   -0.054492   -0.113025
C     -1.866378   -1.017498   -0.943531
C     -0.477933   -1.330959   -0.516816
C      0.182518   -0.022323   -0.165048
O     -4.525785    2.716386    2.325380
O      5.748483   -0.408579    0.777119
O      4.755901    0.695307   -1.638632
O     -4.643446   -0.599815   -1.202695
O     -2.445326   -1.495646   -1.929070
O     -0.576829   -2.113649    0.642980
O     -0.510573    0.483740    0.982226
H      1.426437   -1.010731    2.006123
H      3.885239   -1.160264    2.375771
H      2.180342    0.726414   -1.753190
H     -5.633872    1.216369    0.463639
H     -1.935581    2.163105    2.394629
H      0.081099   -1.921962   -1.260103
H      0.025966    0.683553   -1.004824
H      6.478929   -0.115602    0.154099
H      5.760140    0.671931   -1.569552
H     -5.639321   -0.433746   -1.278536
H     -0.968018   -1.609774    1.402569
