31

C      4.675964   -0.309143    0.210711
C      3.878012   -0.375977   -0.913041
C      4.119487   -0.094157    1.455453
C      2.512816   -0.221216   -0.748973
C      2.758295    0.054972    1.578881
C     -4.232086   -0.882835   -0.326456
C     -2.237298   -2.145113   -0.139890
C      1.930192   -0.005473    0.481786
C     -3.611906   -2.112168   -0.203621
C     -3.535885    0.323431   -0.389082
C     -1.534821   -0.972799   -0.199705
C     -2.184750    0.262239   -0.324887
C     -1.313186    1.445681   -0.394783
C     -0.000894    1.536841    0.252864
C      0.449632    0.161172    0.650448
O     -4.356991   -3.281043   -0.146231
O     -4.193149    1.518049   -0.508841
O     -1.725496    2.426712   -1.048806
O     -0.072197    2.317338    1.422374
O     -0.153495   -0.873275   -0.145025
H      5.738820   -0.423973    0.126862
H      4.302315   -0.543036   -1.886480
H      4.749371   -0.041859    2.338939
H      1.835349   -0.265699   -1.607940
H      2.297806    0.223076    2.532967
H     -5.301810   -0.824868   -0.378427
H     -1.747309   -3.095125   -0.044278
H      0.724052    2.044572   -0.421320
H      0.212684    0.016785    1.729287
H     -3.850593    2.414986   -0.550064
H     -0.132930    1.721903    2.212568
