74

C      2.928988   -0.551551   -1.418365
C      6.728311    0.249739   -0.844506
C     -4.340207    0.093648   -1.342506
C     -0.158810    1.353557   -1.593482
C      4.328404    0.397774    1.300443
C      3.775036    1.214160    0.230084
C      5.167720   -0.759020    0.947026
C     -4.123711    1.014466    1.799016
C     -3.089138    1.747011    1.041017
C      1.325372    1.938071    0.924706
C     -0.171844    2.144562    1.170468
C     -5.927650   -2.197824   -0.442268
C     -1.645101   -1.364232   -0.610148
C     -4.455787   -2.088222   -0.273737
C     -0.250300   -0.954888   -0.762341
C     -6.189306    0.098593    0.689784
C      2.684255    0.658356   -0.639185
C      6.530639   -0.521279    0.399759
C     -4.761676   -0.131507    1.117810
C     -6.729581   -1.227154    0.295135
C     -2.154783    0.902735    0.223589
C      1.447123    0.616212    0.212449
C     -0.764397    0.897120    0.723983
C     -2.546989   -0.573429    0.251383
C      7.265490   -1.834014    0.257924
C     -3.997235   -0.651177   -0.080681
C      0.135696    0.456974   -0.443111
O     -7.873700   -1.492140    0.604271
O      8.164932   -2.125248    1.059148
O      6.917095   -2.688134   -0.768773
H      2.280973   -0.504437   -2.347792
H      3.937162   -0.586735   -1.831767
H      2.671171   -1.516966   -0.934827
H      7.733409   -0.081947   -1.278190
H      6.924422    1.352682   -0.631700
H      6.005796    0.102655   -1.650345
H     -3.464807    0.045941   -2.017900
H     -4.580169    1.148541   -1.195028
H     -5.198591   -0.365415   -1.875529
H      0.668686    1.605380   -2.255183
H     -0.644226    2.309788   -1.309390
H     -0.907981    0.825758   -2.257480
H      3.568487    0.137775    2.105367
H      5.021222    1.088960    1.913324
H      4.649416    1.566323   -0.411046
H      3.451217    2.212472    0.678526
H      4.673087   -1.476097    0.217808
H      5.357201   -1.415072    1.878865
H     -3.700045    0.731622    2.807683
H     -4.939181    1.752508    2.059326
H     -3.560470    2.575235    0.442104
H     -2.441461    2.298125    1.786500
H      1.626929    2.780008    0.237671
H      1.884215    1.972574    1.879648
H     -0.548134    3.076548    0.716799
H     -0.303442    2.262356    2.265873
H     -6.205164   -2.105473   -1.531222
H     -6.212881   -3.261337   -0.188984
H     -2.156707   -1.463313   -1.616228
H     -1.667788   -2.429423   -0.222977
H     -4.138895   -2.676259    0.611443
H     -3.967815   -2.561467   -1.148688
H      0.060629   -1.141252   -1.812367
H      0.425537   -1.609215   -0.144054
H     -6.288990    0.833256   -0.127596
H     -6.721629    0.522311    1.567636
H      2.482379    1.494835   -1.386014
H      7.079805    0.050260    1.216593
H     -4.799889   -0.988950    1.853629
H     -2.289659    1.213119   -0.828194
H      1.537643   -0.173341    0.989741
H     -0.599011    0.105663    1.505021
H     -2.431446   -0.881805    1.322421
H      7.510145   -3.449345   -1.052959
