37

C     -4.180074    1.434602    0.949779
C     -3.102610    1.702351    1.759731
C     -3.951874    0.642189   -0.179956
C     -1.856333    1.204908    1.459637
C      3.043935    0.601433    0.181459
C      3.114198    2.111724    0.289714
C      1.867328   -1.361925   -0.650523
C     -2.124898   -0.703411   -1.564510
C     -2.696590    0.150894   -0.467285
C      1.831252    0.159822   -0.609400
C     -1.622630    0.424742    0.350712
C      1.211520   -1.826889    0.631991
C     -0.278370   -1.587958    0.458573
C     -0.417660   -0.241835   -0.224003
O      3.190705    2.603530   -1.022601
O      1.489792   -3.160857    0.904141
O     -0.927940   -1.613962    1.688471
O     -0.751464   -0.403621   -1.544850
O      0.656390    0.592350    0.002117
H     -5.147381    1.822802    1.185935
H     -3.263250    2.318124    2.643796
H     -4.785361    0.417193   -0.833912
H     -1.008848    1.415426    2.096590
H      3.946105    0.180623   -0.297640
H      3.026797    0.214054    1.218428
H      2.279172    2.529679    0.859738
H      4.054312    2.428324    0.782767
H      1.236377   -1.700615   -1.498772
H      2.904868   -1.740493   -0.761835
H     -2.295042   -1.752435   -1.307794
H     -2.590971   -0.422480   -2.509247
H      1.842414    0.565158   -1.621022
H      1.527983   -1.163709    1.479909
H     -0.656565   -2.411904   -0.191095
H      4.138468    2.442213   -1.320406
H      1.346874   -3.279865    1.876994
H     -1.050630   -2.590181    1.907247
