43

C     -3.103499    0.760078    3.026750
C     -1.822677    0.323355    3.293707
C     -3.043323   -0.150911   -1.627014
C     -3.519756    0.958116    1.714699
C     -3.300354    0.993730   -0.651230
C     -0.968993    0.087816    2.258536
C      2.514185   -2.159305    0.433918
C      3.975765   -2.197663    0.098038
C     -1.566752   -0.056307   -1.995985
C      2.024322   -0.478365   -1.252864
C     -2.661171    0.721767    0.661859
C      1.866409   -0.810606    0.203909
C     -1.383202    0.285723    0.934570
C      1.477961    0.921782   -1.465882
C      0.521707    1.199563   -0.343280
C     -0.309455   -0.025881   -0.031873
O      4.692795   -1.280612    0.866496
O      2.548474    1.806041   -1.350033
O     -0.229783    2.312536   -0.640738
O     -0.740659   -0.695344   -1.150964
O      0.558566   -0.923544    0.607959
H     -3.795867    0.952457    3.836880
H     -1.462214    0.157812    4.300001
H     -3.286039   -1.084700   -1.101640
H     -3.688365    0.002306   -2.497672
H     -4.521621    1.297647    1.550921
H     -4.416616    0.985130   -0.486628
H     -3.056191    1.965219   -1.073142
H      0.053379   -0.256238    2.372581
H      2.436300   -2.459712    1.519700
H      1.965899   -2.952860   -0.113647
H      4.350229   -3.205545    0.450280
H      4.224529   -2.069039   -0.954097
H     -1.497106   -0.575996   -2.999407
H     -1.365788    0.999618   -2.204655
H      1.505496   -1.211612   -1.891449
H      3.098003   -0.486820   -1.529722
H      2.458037   -0.074129    0.777021
H      1.019360    0.936394   -2.461782
H      1.119036    1.449875    0.569103
H      4.267190   -1.145171    1.759216
H      2.781243    2.241208   -2.206761
H      0.280543    2.942188   -1.205677
