43

C      4.225405    1.854965   -0.864656
C      3.552605    1.511396   -2.010093
C      3.912754    1.192145    0.314196
C      2.584483    0.529342   -1.999845
C     -2.413379    1.213052   -0.502127
C      2.787286   -0.347293    1.678803
C     -3.717789    1.726800    0.061296
C      1.284365   -0.288182    1.985875
C     -2.153708   -0.543931    1.263894
C      1.219716   -1.154082   -0.968458
C      2.953549    0.219693    0.322450
C      2.281683   -0.123729   -0.820278
C     -1.511532    0.618871    0.558115
C     -2.278265   -1.674369    0.289555
C     -0.926076   -2.016777   -0.232895
C      0.126260   -0.964769    0.098309
O     -4.430600    2.242619   -1.047014
O     -2.840293   -2.765169    0.990372
O     -0.999176   -2.216603   -1.629213
O      0.648601   -1.295440    1.325907
O     -0.313408    0.310852   -0.037998
H      4.983055    2.619357   -0.858543
H      3.789760    2.023396   -2.935668
H      4.447548    1.461271    1.238195
H      2.061752    0.262684   -2.890721
H     -1.860522    2.018424   -1.012002
H     -2.664682    0.430496   -1.245539
H      3.357753    0.231123    2.435046
H      3.104535   -1.416555    1.645902
H     -4.345831    0.893524    0.437285
H     -3.598965    2.556990    0.767152
H      0.925626    0.732041    1.754737
H      1.211768   -0.493237    3.083737
H     -3.142398   -0.218205    1.645747
H     -1.557905   -0.844322    2.132802
H      0.743785   -0.987127   -1.957113
H      1.610918   -2.170591   -0.921450
H     -1.333799    1.411790    1.313566
H     -2.976407   -1.452416   -0.527615
H     -0.630814   -3.002283    0.184383
H     -3.874016    3.005173   -1.384306
H     -2.692451   -3.561816    0.388293
H     -1.551189   -1.529106   -2.070085
