43

C     -3.870710    2.342886   -0.135947
C     -2.766765    2.810909    0.534105
C     -3.982059    1.012402   -0.481782
C     -1.751696    1.939526    0.867960
C      2.851718    1.205402   -1.159223
C     -3.277496   -1.224185   -0.603747
C      2.662051    2.303457   -0.133999
C     -1.964697   -2.023470   -0.556218
C      2.643977   -0.521614    0.539232
C     -0.633184   -0.194484    0.981188
C     -2.933619    0.158935   -0.126858
C     -1.817514    0.615877    0.547054
C      2.118677   -0.039549   -0.792320
C      2.117650   -1.926375    0.700977
C      0.754671   -2.106803    0.142408
C      0.026712   -0.867868   -0.227101
O      3.406261    3.406586   -0.612849
O      2.213581   -2.362830    2.042006
O      0.805406   -2.933364   -0.999027
O     -1.001585   -1.221103   -1.109811
O      0.771263    0.096265   -0.857719
H     -4.682082    3.009370   -0.409322
H     -2.740798    3.869918    0.777098
H     -4.856756    0.626062   -1.016063
H     -0.876370    2.292672    1.395342
H      2.626968    1.559098   -2.184088
H      3.953035    0.956903   -1.169436
H     -3.658754   -1.205764   -1.645617
H     -3.990103   -1.680768    0.110521
H      3.115243    2.025064    0.834258
H      1.602033    2.559389   -0.005648
H     -1.813183   -2.255450    0.518099
H     -2.092186   -2.982184   -1.133364
H      2.432608    0.139794    1.373308
H      3.766870   -0.547419    0.431705
H     -0.892023   -0.923008    1.757645
H      0.067246    0.535033    1.454027
H      2.420897   -0.827721   -1.541112
H      2.845705   -2.590414    0.146691
H      0.145895   -2.655410    0.912172
H      3.326961    3.401962   -1.595087
H      2.307784   -3.365815    2.020185
H      0.618370   -2.411912   -1.826716
