40

C     -5.050163   -0.224217    1.142904
C     -4.813014   -1.482038    0.629925
C     -3.997649    0.675313    1.207031
C     -3.542859   -1.802552    0.199541
C     -1.587841    1.301687    0.836248
C      2.724421    0.829865    1.255494
C     -0.827943    1.126848   -0.484290
C      4.059037    1.420990    0.864713
C      2.664076   -0.783652   -0.660205
C     -2.730370    0.357810    0.778447
C      1.958368    0.298685    0.084708
C      1.685884   -1.432047   -1.602739
C     -2.483082   -0.894336    0.265003
C      0.410735   -0.635139   -1.761093
C     -0.202974   -0.254849   -0.435733
O      4.701326    1.888646    2.009834
O      1.395202   -2.753024   -1.234646
O      0.618843    0.488012   -2.566037
O      0.756124   -0.224017    0.574463
O     -1.217411   -1.199397   -0.158685
H     -6.055784    0.052554    1.491951
H     -5.641109   -2.175704    0.584541
H     -4.177906    1.679710    1.614409
H     -3.352359   -2.783678   -0.201967
H     -1.907703    2.351451    0.977832
H     -0.906371    0.942448    1.628478
H      2.883994    0.061897    2.039168
H      2.140090    1.648039    1.724483
H     -0.107529    1.921780   -0.656080
H     -1.614768    1.162900   -1.277975
H      4.726965    0.695264    0.376255
H      3.945969    2.295465    0.192206
H      2.974580   -1.556152    0.071168
H      3.498153   -0.373091   -1.239294
H      1.776217    1.135478   -0.623770
H      2.131513   -1.505721   -2.629478
H     -0.290901   -1.297721   -2.342671
H      4.041891    1.955120    2.745631
H      0.744098   -3.077241   -1.919226
H      0.670251    0.164616   -3.500547
