37

C     -4.086043    2.189407   -0.345561
C     -4.331334    1.762504    0.944829
C     -3.146005    1.626711   -1.169947
C     -3.565756    0.706320    1.394041
C      2.150510    1.315816    0.967135
C      3.563606    1.628433    0.655846
C      2.197976   -1.003230    0.122556
C     -1.307071   -0.272896   -1.285472
C     -2.396111    0.578776   -0.704839
C      1.472612    0.314767    0.065966
C      1.404717   -1.973219   -0.770905
C     -2.612303    0.124507    0.578675
C      0.036550   -2.093566   -0.192482
C     -0.611438   -0.742469   -0.018535
O      4.456870    0.592052    0.710024
O      2.041823   -3.191578   -0.822709
O     -0.817560   -2.881745   -0.932255
O      0.181897    0.190686    0.554993
O     -1.739105   -0.944197    0.836243
H     -4.660515    3.014652   -0.743942
H     -5.091050    2.232823    1.581907
H     -2.974423    1.983983   -2.182503
H     -3.740318    0.346682    2.416980
H      2.012326    1.050285    2.037036
H      1.578930    2.287396    0.858507
H      3.665119    2.228483   -0.295695
H      3.901351    2.369044    1.442623
H      2.243297   -1.443010    1.124340
H      3.194602   -0.939867   -0.373727
H     -1.759842   -1.138328   -1.791749
H     -0.627734    0.318329   -1.933764
H      1.491139    0.635777   -0.999731
H      1.322055   -1.528319   -1.795462
H      0.135667   -2.533206    0.831072
H      5.267792    0.790811    1.232851
H      1.534682   -3.921143   -0.421929
H     -0.386912   -3.681474   -1.320353
