40

C      4.448529    1.918946   -0.140133
C      4.799609    0.915535   -1.012748
C      3.178826    1.867220    0.449362
C      3.932451   -0.110455   -1.300981
C     -3.475122    0.478102   -0.551606
C     -3.589074    1.886281   -0.005963
C     -2.119033   -1.623062   -0.386507
C      0.979077    0.810656    0.800331
C      1.701328   -1.216848   -0.977872
C      2.302689    0.851864    0.173043
C      2.675850   -0.130855   -0.696176
C     -2.305272   -0.216983    0.098508
C     -1.186631   -2.305389    0.594382
C     -0.238274   -1.272712    1.208214
C      0.017711   -0.165635    0.209968
O     -4.631756    2.590589   -0.546874
O     -0.523214   -3.380431    0.062096
O     -0.670756   -0.843393    2.432062
O      0.394869   -0.748170   -0.970867
O     -1.174573    0.537264   -0.063603
H      5.115423    2.731712    0.098011
H      5.787365    0.982295   -1.452787
H      2.917241    2.657316    1.129144
H      4.215213   -0.888788   -1.982995
H     -4.438183   -0.045618   -0.336242
H     -3.387490    0.513164   -1.659524
H     -3.629561    1.822770    1.101852
H     -2.603134    2.388714   -0.231998
H     -1.691299   -1.700606   -1.399315
H     -3.122516   -2.138403   -0.397874
H      1.180481    0.557344    1.888314
H      0.586736    1.864255    0.765229
H      1.871753   -2.097229   -0.360917
H      1.906027   -1.531860   -2.043400
H     -2.575339   -0.297739    1.192486
H     -1.820819   -2.664330    1.455394
H      0.727395   -1.803787    1.345501
H     -4.420503    3.063195   -1.369463
H     -0.460632   -3.365061   -0.922274
H     -0.675392    0.110132    2.595414
