37

C      4.076294    1.653118    0.534458
C      2.969624    2.326520    0.097750
C      3.992991    0.286321    0.793526
C      1.769856    1.632519   -0.082391
C     -1.933757    0.369647   -2.281235
C     -3.260898    1.043662   -1.999633
C     -2.222827   -0.897631   -0.224503
C      2.396262   -1.819544    0.796470
C      2.817529   -0.405201    0.619406
C     -1.297677    0.028364   -0.961518
C      1.704158    0.283837    0.177697
C     -1.478871   -1.604541    0.916442
C     -0.324712   -0.660380    1.272712
C      0.605158   -0.684369    0.081432
O     -3.085828    2.214214   -1.249990
O     -2.277086   -1.690387    2.037849
O      0.282054   -1.087514    2.427177
O      1.215721   -1.960289    0.101057
O     -0.068803   -0.594736   -1.105105
H      5.033406    2.138382    0.692267
H      3.032318    3.400540   -0.106570
H      4.854136   -0.283983    1.142872
H      0.919796    2.208849   -0.430082
H     -1.327622    1.056637   -2.892351
H     -2.142840   -0.538098   -2.884018
H     -3.973246    0.412650   -1.461927
H     -3.751587    1.378329   -2.949997
H     -2.541563   -1.692577   -0.929825
H     -3.096730   -0.361191    0.203415
H      2.305975   -2.109527    1.863675
H      3.179406   -2.519255    0.378392
H     -1.149439    0.998443   -0.423711
H     -1.087618   -2.582890    0.602943
H     -0.761925    0.334660    1.464799
H     -2.956237    3.005417   -1.799738
H     -2.293278   -2.577351    2.455081
H     -0.122140   -0.702644    3.244531
