41

C      1.106147   -2.938388   -0.169991
C     -3.414709   -1.332024    0.066541
C      1.057680    0.745940    1.452455
C      3.040030   -1.518792   -0.035502
C      3.493068   -0.125937    0.169384
C     -1.107770    1.682155   -0.271288
C      0.328388    1.772170   -0.712556
C     -0.735635   -0.917222   -0.416270
C     -3.801602    1.219373    0.220857
C      1.607391   -1.727988   -0.273254
C     -2.875753    0.054461    0.008662
C     -1.568665    0.293325   -0.227725
C      0.724317   -0.612247   -0.629436
C      2.597463    0.903943   -0.477930
C      1.142464    0.687853   -0.034798
O     -4.365771    1.084075    1.511139
O      3.044133    2.167657   -0.206854
H      1.766027   -3.756238    0.089725
H      0.071876   -3.217408   -0.323850
H     -3.083296   -1.960975   -0.784633
H     -3.170694   -1.820252    1.029024
H     -4.513885   -1.271082   -0.007450
H      0.272873    1.461887    1.780586
H      0.827303   -0.230128    1.924801
H      2.002326    1.111710    1.939988
H      3.403126   -2.125824    0.849420
H      3.578382   -1.922498   -0.948976
H      4.501074   -0.003888   -0.274265
H      3.628170    0.081287    1.264811
H     -1.678179    2.301136   -1.025389
H     -1.277036    2.228251    0.698625
H      0.350037    1.524922   -1.809874
H      0.759143    2.768080   -0.586296
H     -1.160997   -1.488398   -1.262270
H     -0.799804   -1.590458    0.480887
H     -3.262805    2.168895    0.236176
H     -4.595061    1.266142   -0.526510
H      0.845158   -0.483945   -1.749493
H      2.628020    0.715203   -1.569750
H     -4.583740    0.116519    1.647575
H      3.220806    2.688708   -1.046295
