37

C     -4.841555   -0.649113   -0.624687
C     -4.787829   -0.250253    0.689946
C     -3.661730   -0.875869   -1.348571
C     -3.588712   -0.065116    1.322935
C      2.867332   -1.278155    1.220645
C      3.664051   -1.392879   -0.042446
C      2.203583    1.052325    0.656164
C     -1.090676   -0.839759   -1.178491
C     -2.463814   -0.681420   -0.684909
C      1.734952   -0.315266    1.016514
C      1.063519    1.967990    0.260397
C     -2.389049   -0.281665    0.633039
C      0.022247    1.249317   -0.561556
C     -0.264808   -0.144676   -0.119672
O      4.707558   -2.318639    0.198040
O      1.573952    3.011137   -0.510470
O     -1.158554    1.985836   -0.470888
O      0.907761   -0.871113    0.035900
O     -1.072766   -0.165429    1.041240
H     -5.800131   -0.783401   -1.085535
H     -5.699400   -0.082934    1.223316
H     -3.676654   -1.184870   -2.366514
H     -3.552485    0.248161    2.355324
H      2.380910   -2.289424    1.365173
H      3.490498   -1.030757    2.105234
H      3.031031   -1.845918   -0.834368
H      4.145394   -0.478128   -0.387551
H      2.914833    1.060812   -0.176571
H      2.675586    1.505941    1.552555
H     -0.942343   -0.396759   -2.182852
H     -0.825519   -1.925541   -1.176965
H      1.121812   -0.302039    1.959824
H      0.602869    2.403383    1.154104
H      0.294374    1.257155   -1.657702
H      5.282287   -1.873474    0.888874
H      2.143683    3.630613    0.032068
H     -1.012208    2.949927   -0.638801
