64

C     -1.631078   -4.689970   -0.527154
C     -3.298131    3.507285    1.702586
C     -0.669558   -2.732326    0.707621
C     -2.034354   -2.356394   -1.264774
C     -1.775862    1.862399    0.349092
C      0.105728   -1.773462   -0.136004
C     -2.723971   -1.234272   -1.205844
C     -2.916325    1.639016   -0.582641
C     -0.824230    3.613079    1.694446
C      1.345714   -0.365319    1.420364
C      3.015660    0.980848    0.335731
C      3.784079    0.367364   -2.686650
C     -1.845233   -3.228861   -0.105189
C     -1.936055    3.020258    1.266851
C      1.483695   -1.469775    0.398154
C      1.501879    0.967528    0.671705
C     -3.358258   -0.765394    0.024005
C     -3.916760    0.635478   -0.150073
C      4.287812   -0.284162   -1.464735
C      0.542720    3.247236    1.356072
C      5.864828    1.425130   -1.435632
C      3.342476   -0.301336   -0.298608
N      5.531471    0.258979   -1.090032
O     -4.427560   -1.579155    0.430852
O     -4.653661    0.938327    0.959263
O      1.241973    4.266778    0.952591
O      7.046221    2.102007   -1.148283
O      3.948152   -1.111748    0.696406
O      1.133585    2.044965    1.412380
O      2.229754   -1.035180   -0.712684
S      4.470283    2.049689   -2.399943
H     -1.202571   -5.214914    0.360351
H     -0.990425   -4.759436   -1.416301
H     -2.624066   -5.130163   -0.710511
H     -3.661987    2.922659    2.567678
H     -3.137563    4.535149    2.092164
H     -3.981377    3.589355    0.861342
H      0.007472   -3.617661    0.877151
H     -0.970776   -2.291832    1.672095
H     -1.589744   -2.643496   -2.210061
H     -0.913257    2.157767   -0.326165
H     -1.533238    0.967365    0.963018
H      0.215785   -2.189899   -1.176937
H     -0.449991   -0.814257   -0.159031
H     -2.817443   -0.646788   -2.110493
H     -2.564423    1.303209   -1.606126
H     -3.433662    2.596174   -0.787707
H     -1.028805    4.464749    2.376011
H      0.349264   -0.335874    1.883100
H      2.144109   -0.407488    2.191362
H      3.482550    1.103403    1.360725
H      3.253023    1.901327   -0.187541
H      4.310463   -0.026596   -3.568516
H      2.700494    0.387840   -2.820851
H     -2.718908   -3.260191    0.577074
H      1.971781   -2.372902    0.827361
H      1.033414    0.799884   -0.304448
H     -2.677564   -0.714190    0.896961
H     -4.651508    0.547452   -1.005904
H      4.513426   -1.367917   -1.772902
H     -4.992997   -1.875217   -0.305640
H     -4.410463    0.443084    1.758124
H      7.483588    1.958486   -0.245316
H      4.020405   -2.008096    0.280059
