47

C     -2.678603   -2.049535   -1.082693
C      5.905101    2.669305    0.821068
C     -0.236029   -1.927380   -0.858056
C      4.712974   -1.983283   -0.481830
C      5.895602   -0.033175    0.118186
C     -5.926604    0.122003    1.747516
C     -5.201642    0.713565   -0.560413
C     -1.447430   -1.275002   -0.784226
C      5.915185   -1.387483   -0.232129
C     -5.654529    1.244549    0.753487
C      0.955738   -1.280008   -0.595753
C      3.495716   -1.330248   -0.408255
C      4.702236    0.643817    0.199872
C     -1.458729    0.041510   -0.443088
C      3.514927    0.002952   -0.060358
C      0.952053    0.068681   -0.245643
C      2.232603   -1.981614   -0.677219
C     -0.257097    0.713899   -0.173500
C      2.234931    0.706366    0.021330
C     -2.734036    0.741766   -0.362058
O     -6.703745   -0.847221    1.109402
O      7.136470   -2.048206   -0.307379
O     -4.892408    2.245236    1.301240
O      2.234686   -3.195488   -0.992435
O     -0.334344    2.026911    0.161531
O      2.279293    1.910867    0.337773
O     -2.718105    1.953837   -0.046038
O      4.696833    1.983524    0.547520
O     -3.942493    0.142482   -0.613238
H     -3.125088   -1.632403   -1.995384
H     -3.368845   -2.087496   -0.217363
H     -2.388366   -3.093922   -1.294148
H      6.686698    2.470384    0.072068
H      5.678590    3.761881    0.835117
H      6.209672    2.361543    1.848562
H     -0.190733   -2.974753   -1.126607
H      4.700790   -3.036877   -0.756534
H      6.854617    0.428926    0.313947
H     -6.553053    0.558191    2.553650
H     -4.982022   -0.312050    2.135838
H     -5.943398   -0.091507   -0.848516
H     -5.359440    1.511353   -1.322686
H     -6.673584    1.701569    0.572382
H     -7.394978   -0.370712    0.602689
H      7.452788   -2.490281    0.564428
H     -4.553311    1.963388    2.208207
H      0.271108    2.740139    0.394654
