64

C      1.027584   -2.024044   -2.137977
C      3.413318    3.871202   -0.261582
C      0.218002   -2.899814    0.117026
C      2.526931   -3.367316   -0.657550
C      2.309896    1.618216    0.054454
C     -1.098058   -2.267660   -0.132488
C      3.325140   -2.532019   -0.054870
C      3.755066    1.178424    0.106368
C      1.206559    3.642390    0.860266
C     -0.827246   -0.234342    1.357861
C     -2.406828    0.798636   -0.258861
C     -4.892600   -0.718756   -1.050145
C      1.151649   -3.018617   -1.061993
C      2.240764    3.085935    0.255415
C     -1.616027   -1.462391    1.070769
C     -0.996515    0.862348    0.352191
C      2.881910   -1.171670    0.257600
C      3.953582   -0.239354   -0.356952
C     -4.757772    0.085223    0.221906
C      0.034910    2.961308    1.387831
C     -5.953380    1.735780   -0.878955
C     -3.305566    0.073187    0.690314
N     -5.162461    1.407846    0.052260
O      2.949077   -0.874398    1.618756
O      5.173610   -0.755595    0.073708
O     -0.186222    3.263755    2.632228
O     -6.455535    3.008856   -1.185985
O     -3.310715    0.766437    1.906669
O     -0.725069    2.131539    0.690331
O     -2.972079   -1.231998    0.907309
S     -6.319805    0.211484   -1.759743
H      2.093042   -1.768251   -2.443189
H      0.626317   -2.460609   -3.104264
H      0.429317   -1.136250   -1.993579
H      4.315831    3.705392    0.368978
H      3.147409    4.947996   -0.263674
H      3.657544    3.599065   -1.301796
H      0.688651   -2.424986    1.005072
H      0.009945   -3.942331    0.534943
H      2.961803   -4.375563   -0.848008
H      1.839005    1.420659   -0.914099
H      1.804661    1.183833    0.936957
H     -1.228396   -1.714983   -1.064206
H     -1.898845   -3.074926   -0.220532
H      4.357795   -2.828658    0.235656
H      4.078013    1.232163    1.166012
H      4.424477    1.845062   -0.470194
H      1.319480    4.744754    0.939040
H      0.239043   -0.525612    1.424264
H     -1.140989    0.107704    2.387366
H     -2.413341    0.409183   -1.274669
H     -2.833768    1.843590   -0.341873
H     -4.030688   -0.697143   -1.705229
H     -5.281474   -1.740848   -0.850125
H      0.783517   -3.987035   -1.554604
H     -1.513674   -2.150670    1.935436
H     -0.330851    0.570680   -0.516499
H      1.961874   -0.831329   -0.216869
H      3.875204   -0.316051   -1.442452
H     -5.357182   -0.391426    1.045954
H      2.842730   -1.709709    2.108716
H      5.589466   -1.310839   -0.632754
H     -6.593651    3.667635   -0.407877
H     -3.604387    0.204911    2.661939
