42

C     -3.002396    2.907857   -0.258193
C     -3.131357   -0.586818    0.810342
C     -3.395703    0.437776   -0.220348
C     -1.821840   -1.271388    0.798547
C      3.226449    1.257356   -0.190334
C      0.865615    1.157807   -0.758840
C      0.046131   -2.078350   -0.681229
C      4.500524   -0.454702    0.834602
C     -2.375202    1.506027   -0.404207
C      2.085309    0.486683   -0.190361
C     -1.350782   -1.623564   -0.591261
C      4.433537    0.810756    0.312415
C      0.971482   -1.698801    0.381860
C      3.353822   -1.232096    0.835221
C      0.002147    1.699796    0.303090
C      2.120643   -0.773277    0.320167
O     -2.189512   -2.690612   -1.001177
O      5.530607    1.667573    0.266274
O      0.797360   -2.219113    1.541858
O      3.500095   -2.499583    1.379073
O      0.598887    2.478243    1.129896
O     -1.321893    1.478124    0.506887
H     -3.721980    3.096022   -1.063530
H     -2.191177    3.658753   -0.355983
H     -3.424541    3.003849    0.752391
H     -3.921860   -1.364346    0.719977
H     -3.283085   -0.142266    1.826047
H     -4.359044    0.934480    0.031198
H     -3.578180   -0.072457   -1.190878
H     -1.959904   -2.249692    1.314417
H     -1.027910   -0.767226    1.407713
H      3.200412    2.281519   -0.605073
H      1.162459    2.065773   -1.369512
H      0.414996    0.488263   -1.471667
H      0.420957   -1.839328   -1.718264
H      0.026443   -3.222641   -0.731263
H      5.439537   -0.797978    1.224456
H     -2.003630    1.507417   -1.451024
H     -1.543922   -0.837754   -1.332213
H     -1.971211   -2.945214   -1.942893
H      6.097478    1.597377   -0.590877
H      2.780235   -3.154244    1.422695
