38

C     -3.421143   -0.330556    0.190732
C      1.632017    1.219618    1.899480
C      2.671820   -1.066189    0.655438
C      2.725846    0.715807   -1.009612
C      0.248737   -2.056369   -0.378157
C     -1.132555   -1.531185   -0.018547
C     -2.428711    1.860903    0.048564
C     -0.225618   -0.177486   -1.683093
C     -2.422056    0.509716   -0.623163
C      0.948231    0.617121    0.728892
C      0.945514   -0.980526   -1.155159
C     -1.298787    1.713769    1.026611
C     -0.336988    0.766041    0.497970
C      1.820038   -0.188764   -0.205752
C     -1.082246   -0.081100   -0.435822
O     -1.223387    2.326913    2.122263
H     -3.662961   -1.233789   -0.373439
H     -4.339592    0.300513    0.353962
H     -3.007879   -0.490839    1.200401
H      1.977033    2.231589    1.569904
H      0.930038    1.406849    2.738724
H      2.476148    0.595117    2.191032
H      3.000212   -1.955184    0.074206
H      3.617969   -0.506022    0.914146
H      2.207609   -1.335893    1.616480
H      3.234582    1.456000   -0.348452
H      3.550943    0.063141   -1.406381
H      2.227221    1.192346   -1.854893
H      0.758094   -2.295945    0.556827
H      0.193814   -2.990800   -0.986313
H     -1.833117   -2.049677   -0.706205
H     -1.375784   -1.689503    1.036553
H     -2.209155    2.675854   -0.676709
H     -3.334627    2.045957    0.632906
H      0.068649    0.823050   -2.036674
H     -0.693449   -0.775781   -2.478273
H     -2.753334    0.567878   -1.682456
H      1.546874   -1.352574   -1.995992
