38

C      3.535874    0.627010    0.372099
C     -1.783492   -2.164542   -0.292425
C     -2.868536    0.364674   -0.650556
C     -2.566331    0.180676    1.751483
C     -0.253519    1.766500   -0.848867
C      1.086305    1.020811   -0.855760
C      2.528171   -1.585423    0.347672
C      0.303254    1.166064    1.341757
C      2.394593   -0.192358    0.927783
C     -1.035490   -0.952228    0.165694
C     -0.907037    1.457094    0.469367
C      1.165469   -2.127576    0.446785
C      0.260071   -1.000963    0.324920
C     -1.816062    0.280233    0.426052
C      1.057584    0.240288    0.411550
O      0.879979   -3.355218    0.608137
H      3.696497    0.446500   -0.711775
H      4.460273    0.275926    0.883740
H      3.441589    1.702841    0.614758
H     -2.159442   -2.762445    0.580609
H     -1.058193   -2.821609   -0.835143
H     -2.590167   -1.929811   -0.987597
H     -2.477428    0.004926   -1.624072
H     -3.686913   -0.327706   -0.362144
H     -3.326343    1.369366   -0.722195
H     -1.950165    0.521019    2.585483
H     -3.470521    0.843515    1.642530
H     -2.977848   -0.843130    1.878079
H     -0.109288    2.861906   -0.898151
H     -0.828174    1.449249   -1.724206
H      1.193573    0.408581   -1.771842
H      1.872044    1.794065   -0.772417
H      3.279152   -2.192028    0.891288
H      2.769188   -1.494035   -0.736561
H      0.869670    2.120987    1.418024
H      0.058062    0.720273    2.301746
H      2.474895   -0.211873    2.023718
H     -1.461296    2.338443    0.879718
