42

C      5.643106   -0.331861   -1.158252
C      5.093648    1.296961    0.587519
C     -5.852307    1.594074   -0.401301
C     -4.748189    2.325273   -0.020888
C     -3.377286   -2.472242   -0.129941
C     -5.805064    0.240509   -0.526261
C     -4.519790   -1.784227   -0.376744
C     -3.564098    1.651393    0.238380
C     -2.245780   -1.764244    0.256227
C      2.440842   -0.002803    0.682478
C      0.070079    0.286802    1.089888
C      4.768342   -0.075783    0.062054
C     -4.596318   -0.396829   -0.256439
C      1.059627   -0.187382    0.063919
C     -3.481861    0.264774    0.119741
C     -2.256548   -0.392014    0.392167
N      3.404652   -0.212663   -0.351631
O      0.880484   -1.425809   -0.459074
O     -1.227300    0.391757    0.760116
Cl     0.692765    0.000000    0.000000
H      6.589702   -0.841186   -0.875038
H      5.931107    0.612433   -1.664718
H      5.111199   -0.994612   -1.884178
H      5.507602    1.258022    1.623032
H      5.872590    1.796109   -0.029039
H      4.214166    1.970310    0.630514
H     -6.801736    2.108422   -0.611827
H     -4.768634    3.413075    0.084386
H     -3.325502   -3.554041   -0.225927
H     -6.625738   -0.398146   -0.818717
H     -5.394586   -2.343197   -0.676472
H     -2.670203    2.175024    0.539382
H     -1.350264   -2.319761    0.471136
H      2.509567   -0.756755    1.502454
H      2.489945    0.995216    1.118169
H      0.519336    1.270862    1.469133
H      0.239223   -0.373354    2.018564
H      4.999311   -0.872708    0.808287
H      0.941459    0.538711   -0.805434
H      3.280487   -1.176981   -0.724731
H      1.044733   -1.513129   -1.421381
H     -0.692765    0.000000    0.000000
