71

C     -3.940224    1.522608   -1.287046
C     -2.382506    2.494033    0.397236
C     -4.405413   -1.102918    0.247492
C     -3.351946    0.139636    2.065077
C      2.887408    2.626661    2.892195
C      3.751298   -4.105033   -1.661633
C      4.224114   -3.257383   -0.699535
C      2.449208   -3.987141   -2.104921
C      3.417406   -2.295868   -0.174841
C      1.651212   -3.013675   -1.565791
C      2.954268    2.763240    0.388255
C      2.736737    2.242907   -0.868549
C     -0.133401   -1.055862   -0.416418
C     -0.915037    0.059841    0.296342
C      2.117749    0.812222    1.374236
C     -2.599841    1.405893   -0.573694
C     -3.102316   -0.575268    0.775300
C      2.651000    2.062243    1.534127
C      2.112614   -2.155308   -0.598871
C      1.277551   -1.112887    0.033936
C      1.870603    0.223325    0.113965
C      2.186264    0.951829   -1.000201
N     -2.288878    0.085452   -0.168200
O      1.990224    0.474006   -2.272936
C     -0.802656   -0.860048    0.124703
C      0.598791   -0.709114   -0.396198
C     -1.490141    0.392109    0.393933
C      1.481253    0.013893    0.540209
O     -0.745865   -1.614872    1.288331
O      0.680767   -0.171914   -1.645582
O     -1.913307    0.615045    1.556702
O     -1.719348    1.384082   -0.561996
O      1.566034   -0.308278    1.743674
O      2.228722    1.071652    0.067166
H     -3.892570    2.401012   -1.998052
H     -4.768212    1.732525   -0.611168
H     -4.086105    0.639732   -1.938934
H     -1.945863    2.230790    1.353362
H     -1.772297    3.357884   -0.001925
H     -3.385137    2.967438    0.617147
H     -4.701599   -2.014169    0.849323
H     -4.309210   -1.470691   -0.790715
H     -5.251273   -0.399169    0.379450
H     -3.987394   -0.543195    2.692231
H     -3.952084    1.063104    1.962216
H     -2.429226    0.288725    2.677499
H      1.914445    3.020518    3.239925
H      3.589891    3.483691    2.827233
H      3.331478    1.893564    3.579279
H      4.353181   -4.880244   -2.105115
H      5.246583   -3.361102   -0.361393
H      2.053694   -4.664041   -2.880798
H      3.772263   -1.596330    0.604138
H      0.638435   -2.935955   -1.923120
H      3.377783    3.756913    0.513958
H      2.980574    2.806661   -1.762757
H     -0.325349   -0.954039   -1.484976
H     -0.638725   -1.990054   -0.006732
H     -0.378189    1.007611    0.049152
H     -0.834533   -0.086406    1.392565
H      1.866041    0.230653    2.266043
H     -1.863977    1.607080   -1.417815
H     -2.517557   -1.499241    1.063289
H      1.199917   -1.467464    1.134802
H     -2.317836   -0.504482   -1.041411
H      2.238384    1.083064   -3.077071
H      1.636370   -0.406934   -2.525156
H     -1.379120   -1.395124   -0.681471
H      1.025097   -1.755295   -0.464699
H     -2.593330    1.916573   -0.435791
H      3.063102    1.421289    0.525668
