40

C     -3.301719   -1.126897    0.672112
C      1.597901    2.289060   -0.408241
C      2.996261   -0.404097   -0.903037
C      2.641135    0.161446    1.444559
C      0.495696   -1.943608   -0.884733
C     -0.958314   -1.522280   -0.846752
C     -2.656950    1.095372   -0.281449
C     -0.055273   -1.027709    1.258537
C     -2.271553   -0.001516    0.664524
C      1.015927    0.946323   -0.218319
C      1.133918   -1.452156    0.383136
C     -1.389895    1.552169   -0.973736
C     -0.301617    0.788098   -0.363581
C      1.934408   -0.169423    0.127715
C     -0.941766   -0.435747    0.194127
O     -1.297080    2.913140   -0.842182
H     -3.691821   -1.250045   -0.357357
H     -2.830945   -2.051364    1.068179
H     -4.116220   -0.806414    1.379429
H      2.477909    2.384851    0.291791
H      1.985366    2.424876   -1.445422
H      0.935543    3.117783   -0.181192
H      4.034264   -0.381658   -0.457736
H      3.016358    0.425839   -1.662454
H      2.927260   -1.396578   -1.397648
H      2.151039    1.031820    1.905279
H      2.627204   -0.707016    2.137757
H      3.710842    0.404717    1.265709
H      0.604312   -3.043228   -0.920234
H      0.928879   -1.473047   -1.799891
H     -1.593301   -2.365608   -0.525721
H     -1.330498   -1.145914   -1.799611
H     -3.118804    1.923561    0.319473
H     -3.406655    0.769560   -1.041461
H      0.253028   -0.294725    2.018187
H     -0.538941   -1.929963    1.662039
H     -2.208762    0.352899    1.714782
H      1.760585   -2.184479    0.886831
H     -1.450704    1.276458   -2.047419
H     -1.767016    3.255501   -0.035990
