39

C      0.474388   -1.115032    0.436402
C      1.800689   -1.392212    0.179368
C      0.809373    1.153465   -0.112232
C     -2.291711   -0.184805   -0.539692
C     -0.049572    0.154045    0.298087
C      2.665586   -0.399732   -0.230922
C      2.135472    0.876559   -0.369268
C     -1.490398    0.435200    0.581428
N     -3.680752   -0.056500   -0.328462
O      4.015611   -0.638133   -0.501601
O      2.973939    1.897373   -0.779147
O     -1.817701   -0.202838    1.774557
C     -0.666649   -0.534648    0.154544
C      0.764137   -0.612083   -0.341590
C     -1.294392    0.777592    0.027208
C      1.688267    0.329454    0.298840
O     -1.440643   -1.496498   -0.558342
O      1.248185   -1.936007   -0.113154
O     -0.933754    1.845172    0.577288
O     -2.439431    0.933832   -0.790895
O      2.656466   -0.100854    0.990418
O      1.591189    1.702837    0.207583
H     -0.176919   -1.915039    0.756258
H      2.219904   -2.387953    0.285975
H      0.407902    2.152803   -0.223775
H     -2.026376   -1.259735   -0.612735
H     -2.029312    0.267429   -1.518786
H     -1.610756    1.516205    0.654861
H     -3.994265    0.510702    0.462491
H     -4.290518   -0.092877   -1.147629
H      4.332753   -1.591447   -0.379611
H      2.652682    2.843842   -0.898763
H     -1.030017   -0.571317    2.213194
H     -0.667143   -0.891914    1.202034
H      0.736487   -0.507032   -1.445203
H     -1.324846   -1.322857   -1.541965
H      1.336308   -2.093399    0.865758
H     -3.132435    1.657505   -0.543758
H      1.878253    2.248901    1.011234
