15

C     -0.779671    0.456683   -0.685612
C      0.321030    0.038341    0.302566
C     -2.098455    0.378056   -0.033472
C      1.630609    0.142459   -0.382530
O      0.091337   -1.287482    0.707608
O     -2.293655    0.986031    1.054359
O     -3.153148   -0.352070   -0.571456
O      2.055572    1.231983   -0.829745
O      2.418702   -0.982053   -0.540492
Na     0.000000    0.000000    0.000000
H     -0.584341    1.510429   -0.991807
H     -0.719384   -0.196397   -1.570109
H      0.278700    0.686555    1.181635
H     -0.599344   -1.694625    0.095523
H      3.432047   -0.917911   -0.488025
