39

C     -1.922161   -1.608167    1.573447
C     -3.273124   -1.341652   -0.456538
C      0.480694    3.568341   -0.858027
C     -1.038214    2.276593    0.593111
C      3.049050    0.042274   -0.385399
C     -1.952294    1.135833    0.269311
C      2.268173    1.236585   -0.750010
C      0.975725   -1.152675    0.196630
C     -1.842859   -1.366671    0.101254
C      0.100838    2.400157   -0.366433
C      2.274908   -1.174103   -0.044026
C     -1.218751   -0.065573   -0.274696
C      0.797926    1.139964   -0.750242
C      0.221675    0.071870    0.140978
C      3.023409   -2.425307    0.017501
O      4.249837   -2.411674   -0.215153
O      2.437304   -3.636948    0.323409
H     -1.365565   -0.857892    2.172572
H     -1.426744   -2.587122    1.786526
H     -2.975664   -1.723709    1.914429
H     -3.173488   -1.320117   -1.557973
H     -3.819812   -2.259943   -0.192717
H     -3.797864   -0.412595   -0.161659
H     -0.026288    4.472065   -0.576923
H      1.312592    3.595454   -1.549207
H     -1.630830    3.232242    0.485754
H     -0.694545    2.286133    1.653623
H      3.776378    0.263113    0.450899
H      3.735607   -0.271299   -1.228510
H     -2.708058    1.500646   -0.473865
H     -2.533438    0.895433    1.188532
H      2.643958    1.620122   -1.746353
H      2.547359    2.076474   -0.045170
H      0.490819   -2.075246    0.436906
H     -1.330628   -2.168798   -0.467991
H     -1.250625    0.012686   -1.382157
H      0.455331    0.914133   -1.801725
H      0.201569    0.517146    1.179548
H      2.937803   -4.397774    0.800345
