24

C      0.233819    1.376988    1.065882
C     -1.117445    1.208737    0.425799
C      0.372496   -1.375163    0.687424
C      1.221254    0.865056    0.042901
C      1.607394   -0.549012    0.491076
C     -0.691328   -1.147143   -0.329412
C     -0.809020    0.315314   -0.747770
N      0.510001    0.715097   -1.199470
O      2.457815   -1.086718   -0.466737
O     -1.919718   -1.611317    0.169515
O     -1.681175    0.451948   -1.786797
H      0.432187    2.423053    1.358748
H      0.224909    0.748672    1.994827
H     -1.500549    2.170430    0.038210
H     -1.858044    0.732042    1.101336
H     -0.041670   -1.282950    1.722504
H      0.693843   -2.453459    0.593025
H      2.086013    1.524422   -0.000885
H      2.165515   -0.436468    1.438628
H     -0.468647   -1.703069   -1.282546
H      0.521123    1.527590   -1.813017
H      2.602833   -0.467687   -1.218235
H     -2.561526   -1.817261   -0.556864
H     -2.480082   -0.129101   -1.728141
