39

C      0.123763   -2.070514    2.041546
C      2.661036   -0.977563   -2.202097
C     -1.114226   -1.757098    1.748842
C      2.717336   -0.471212   -3.503363
C     -2.701708    1.366857   -0.680508
C     -2.500637   -0.998460   -0.236196
C     -0.729556    0.133758   -1.291636
C      2.440786    1.199686   -2.174798
C     -0.817340    1.274493    2.386037
C     -2.255211    0.050955   -1.268480
C      2.484633    0.096145   -1.364333
C      1.230962   -1.344902    1.401582
C     -2.154917    1.658316    0.489890
C      1.024855   -0.394255    0.545700
C      2.368016    0.126012    0.093273
C      2.698828   -1.533265    1.593612
C     -2.252177    2.787281    1.409559
C     -1.440164   -0.706223    0.804947
C     -0.341047    0.017433    0.155719
C     -1.231466    0.711470    1.091837
O      3.206670   -2.392230    2.371536
O     -2.973869    3.825531    1.281634
O      2.579919    0.845334   -3.435302
O     -1.409527    2.556105    2.488280
O      3.286824   -0.614464    0.779375
H      0.360738   -2.871134    2.761459
H      2.745868   -2.009758   -1.974861
H     -1.922187   -2.323014    2.247465
H      2.845180   -0.989813   -4.426643
H     -3.398730    2.010736   -1.163723
H     -3.490783   -0.810472    0.217325
H     -2.420224   -2.012706   -0.636639
H     -0.343955   -0.736969   -1.847375
H     -0.406517    1.084030   -1.763540
H      2.313127    2.245115   -1.895271
H     -1.246339    0.638949    3.210353
H      0.295157    1.330376    2.503543
H     -2.687796   -0.136572   -2.246664
H      2.454678    1.192042    0.487916
