49

C     -2.192297   -3.342683    0.387057
C     -2.389137   -3.114720   -0.953070
C     -1.650585   -2.328661    1.148326
C     -2.047033   -1.887895   -1.518239
C     -1.311996   -1.108967    0.579481
C     -4.039781    1.261066   -1.332412
C     -3.538184    3.003246    0.171490
C     -5.376408    1.599722   -1.365022
C     -4.885525    3.368615    0.157734
C      4.549133   -2.789242   -0.009382
C      5.528795   -0.879174   -1.041296
C      4.000150   -2.015272    0.983806
C      4.975193   -0.102457   -0.040658
C      0.330735    0.719473   -1.299065
C     -1.506180   -0.872146   -0.764106
C     -3.109430    1.934203   -0.584365
C     -5.790948    2.672291   -0.603111
C      5.301403   -2.229453   -1.005736
C      4.217699   -0.656099    0.964942
C     -1.129790    0.433717   -1.302197
C     -1.687339    1.578125   -0.543806
C      1.696302    1.582860    0.628510
Cl    -7.489853    3.087405   -0.656996
I      6.149112   -3.408271   -2.536057
N      2.588865    2.412381    0.219310
N     -0.745127    2.134931    0.104284
N      1.932032    0.782605    1.761613
N      0.482757    1.515088   -0.106928
O      3.362739   -0.582962    3.462351
O      4.359990    1.494557    2.542937
S      3.503551    0.305601    2.248110
H     -2.465632   -4.312315    0.819169
H     -2.815348   -3.892666   -1.587306
H     -1.506266   -2.537455    2.204551
H     -2.189558   -1.676099   -2.572311
H     -0.891351   -0.345856    1.217992
H     -3.723028    0.423863   -1.930727
H     -2.876148    3.593657    0.792317
H     -6.099894    1.049633   -1.967678
H     -5.253064    4.212732    0.747959
H      4.379873   -3.855643    0.003466
H      6.115817   -0.404512   -1.810379
H      3.399220   -2.487510    1.774064
H      5.152765    0.969698   -0.063495
H      0.983653   -0.157628   -1.337379
H      0.567415    1.379623   -2.157556
H     -1.450127    0.431545   -2.384530
H      3.512773    2.552634    0.670677
H      1.070057    0.488414    2.304637
