50

C     -4.789340   -3.503274   -0.534241
C     -4.477799   -2.340348   -1.232130
C     -4.054857   -3.847748    0.576542
C     -3.435733   -1.546193   -0.801591
C     -3.016082   -3.026815    0.979104
C      6.067081    2.237657   -0.705228
C      6.825828    0.046591   -0.272877
C     -3.017725    2.525552    0.993477
C     -3.965234    0.550580    1.865031
C     -4.078484    3.273801    1.455461
C     -5.030990    1.308686    2.328351
C      5.023807    1.733609   -1.455129
C      5.772856   -0.458666   -1.029585
C      8.070816    1.958376    0.676098
C     -0.329351   -1.291635   -0.065335
C      6.995584    1.400559   -0.094296
C     -2.703060   -1.872695    0.290632
C     -2.928116    1.152443    1.181632
C     -5.111438    2.667644    2.137097
C      4.859047    0.378313   -1.629781
C     -1.558994   -1.051352    0.780952
C     -1.784693    0.384019    0.675448
C      1.427999    0.377195   -0.916962
Cl    -6.472803    3.596193    2.735449
N      8.921371    2.417670    1.303130
N      1.935703    1.539988   -0.787776
N     -0.820953    0.955788    0.050298
N      2.147007   -0.600686   -1.653441
N      0.146532    0.039005   -0.334723
O      3.964247   -1.481213   -3.339953
O      3.117081    0.751230   -3.639403
S      3.541396   -0.242468   -2.571912
H     -5.613981   -4.146053   -0.862685
H     -5.085260   -2.122858   -2.089602
H     -4.304630   -4.761398    1.119560
H     -3.209588   -0.643749   -1.359640
H     -2.450591   -3.314843    1.855240
H      6.167472    3.319880   -0.587934
H      7.551178   -0.608622    0.203021
H     -2.202376    3.024253    0.451412
H     -3.935532   -0.531754    2.039385
H     -4.115539    4.360202    1.288226
H     -5.828974    0.805943    2.861422
H      4.328655    2.442891   -1.909180
H      5.703898   -1.537634   -1.124940
H      0.430941   -1.922179    0.441760
H     -0.644832   -1.727517   -1.038706
H     -1.279854   -1.397734    1.805925
H      1.455576    2.307809   -0.256133
H      1.792733   -1.578444   -1.621611
