50

C     -4.059675   -4.275368   -0.744241
C     -4.099699   -3.183797    0.220551
C     -3.327020   -4.174924   -1.763152
C     -3.242483   -2.147003   -0.206907
C     -2.491367   -3.195009   -2.206764
C      6.445260    2.191645    1.797618
C      6.261387   -0.175907    1.738473
C     -3.027574    2.512837   -0.597655
C     -4.212558    0.836892   -1.774810
C     -4.158869    3.312894   -0.641072
C     -5.382756    1.626028   -1.836447
C      5.047095    2.254324    1.989616
C      4.875402   -0.134583    1.929247
C      8.510299    0.835744    1.573382
C     -0.163375   -1.227003   -1.304058
C      7.035328    0.998744    1.679110
C     -2.491724   -2.032270   -1.244226
C     -3.124511    1.209272   -1.223824
C     -5.347513    2.867483   -1.269072
C      4.369442    1.165300    2.048725
C     -1.609325   -0.964681   -1.638335
C     -1.884504    0.372367   -1.142871
C      1.518857    0.102282    0.094789
Cl    -6.726516    3.958738   -1.277158
N      9.641647    0.729694    1.499434
N      2.483536   -0.629103   -0.013262
N     -0.827559    0.802232   -0.578968
N      1.624116    1.234501    1.027045
N      0.235687   -0.055875   -0.560528
O      2.279904    0.168924    3.360645
O      2.361934    2.563597    3.135238
S      2.639160    1.274656    2.385527
H     -4.717904   -5.091529   -0.402359
H     -4.668150   -3.225820    1.059075
H     -3.363915   -5.110713   -2.487475
H     -3.277053   -1.290911    0.533524
H     -1.927393   -3.130960   -3.034817
H      6.986099    3.121944    1.753454
H      6.783781   -1.111033    1.637523
H     -2.146184    2.847603   -0.116279
H     -4.341548   -0.176349   -2.280477
H     -4.104928    4.283958   -0.176598
H     -6.272089    1.274094   -2.312885
H      4.615594    3.269711    2.086329
H      4.266404   -1.003702    1.999160
H      0.488818   -1.341144   -2.171929
H     -0.050795   -2.071051   -0.586219
H     -1.608996   -0.914735   -2.783839
H      3.206540   -1.203455   -0.114453
H      0.979694    2.051463    0.739346
