53

C      4.029160    2.055399   -0.643876
C      1.583488   -0.421116    1.723835
C     -4.460805   -0.327197    0.089255
C      4.051547   -0.285951   -0.228252
C      1.244307    2.009744    0.204624
C     -2.148940    0.819762   -1.803969
C     -1.472368    0.538590    1.796428
C      3.308910    0.789762   -0.401906
C      1.849120    0.774376   -0.368632
C      3.421956   -1.566633    0.014583
C     -2.276128    0.835725   -0.322723
C     -0.250846    2.025632    0.155175
C     -1.189271    1.900160   -2.125456
C     -0.925251   -1.733870    0.208172
C     -0.179496   -0.480436   -0.090339
C      1.972129   -1.676820   -0.311963
C     -2.400668   -1.627354    0.060021
C      1.267987   -0.489443    0.277764
C     -2.979550   -0.282225    0.327186
C     -0.920028    0.732452    0.398160
O      4.094553   -2.534293    0.483903
O     -0.864699    2.152336   -3.296399
O     -0.665695   -2.294964    1.448015
O      1.556096   -2.888496    0.180539
O     -2.826513   -2.028559   -1.227466
O     -2.751698    0.008508    1.687121
O     -0.656840    2.629340   -1.087278
H      3.587071    2.934414   -0.143152
H      5.050436    1.961238   -0.226125
H      4.118629    2.277450   -1.728667
H      2.709245   -0.520143    1.808969
H      1.213597   -1.261824    2.339298
H      1.373444    0.547637    2.216799
H     -4.861652   -1.180733    0.688604
H     -4.676371   -0.461174   -0.982771
H     -4.970516    0.578221    0.490588
H      5.118000   -0.217013   -0.265907
H      1.649311    2.288147    1.208199
H      1.591095    2.862659   -0.453630
H     -3.170810    1.097892   -2.200087
H     -1.916031   -0.141652   -2.260144
H     -0.903055   -0.143820    2.420296
H     -1.493839    1.564428    2.258081
H      1.499082    0.718477   -1.440971
H     -2.715143    1.790255   -0.009728
H     -0.598561    2.750578    0.940875
H     -0.605053   -2.495701   -0.565870
H     -0.183547   -0.382808   -1.222406
H      1.901033   -1.618616   -1.418129
H     -2.918753   -2.352024    0.751804
H     -1.467720   -2.693163    1.868607
H      2.276523   -3.545464    0.030536
H     -3.016877   -2.991692   -1.251594
