44

C      4.894327    0.152553   -0.322820
C      4.303106   -1.228457   -0.569403
C     -0.948457    1.962644   -0.545782
C     -4.290173   -0.547142   -0.299461
C     -2.385064    1.558794   -0.348816
C     -0.048738    1.340349    0.526200
C     -3.879793    0.109458    0.974586
C      3.909456    1.244276   -0.633095
C     -3.348089   -1.567115   -0.814908
C      2.974958   -1.329089    0.154821
C      0.643024   -0.728794   -0.577188
C     -2.459121    0.601884    0.792222
C     -0.168110   -0.162458    0.527001
C      2.631466    0.662471   -1.183016
C     -1.601310   -0.620535    0.541820
N     -1.970685   -1.306971   -0.675046
N      2.051729   -0.457703   -0.545540
O      2.062379    1.144671   -2.195788
H      5.202203    0.154716    0.754098
H      5.829659    0.233169   -0.915277
H      4.067151   -1.258164   -1.664418
H      5.010022   -2.007278   -0.266655
H     -0.554211    1.618290   -1.523676
H     -0.825237    3.049020   -0.461438
H     -5.271695   -1.069022   -0.092290
H     -4.571931    0.224993   -1.074985
H     -2.999159    2.451732   -0.089485
H     -2.721251    1.058265   -1.262751
H     -0.257722    1.782313    1.521324
H      0.973896    1.665922    0.268360
H     -4.522078    1.004280    1.126976
H     -3.939514   -0.607818    1.798758
H      3.721726    1.814200    0.298872
H      4.348488    1.899996   -1.391769
H     -3.566234   -1.701674   -1.916256
H     -3.617369   -2.572458   -0.374702
H      2.621890   -2.369580    0.226430
H      3.142929   -0.864910    1.161069
H      0.200535   -0.462230   -1.587036
H      0.535125   -1.858099   -0.577866
H     -2.133910    1.037740    1.759259
H      0.255594   -0.485266    1.525186
H     -1.827267   -1.327849    1.376854
H     -1.472547   -2.239123   -0.644772
