33

C     -6.300206   -1.143273    0.777432
C      6.112583    1.166209   -0.082513
C     -4.877328   -1.486509    0.485674
C      5.285926    1.609649   -1.054217
C     -3.907448   -0.647083    0.747932
C      3.966308    1.273862   -1.117469
C     -2.531718   -1.009501    0.452664
C     -1.533590   -0.189883    0.723986
C      2.748488    0.964046   -1.175942
C      0.384328   -1.490751   -0.256515
C     -0.131517   -0.320203    0.525761
C      1.900332    0.148301   -0.357877
C      0.485019    0.793400   -0.333207
O      0.515333    2.002549    0.286249
O      1.588155   -1.106034   -0.839718
H     -7.017053   -1.643322    0.091567
H     -6.483204   -1.490204    1.813832
H     -6.394852   -0.038103    0.782133
H      7.096910    1.497163   -0.151464
H      5.721279    0.530536    0.654897
H     -4.626312   -2.455247    0.044991
H      5.816041    2.279760   -1.758609
H     -4.138462    0.306915    1.170975
H      3.857121    1.592918   -2.480456
H     -2.253870   -1.943301    0.006602
H     -1.871450    0.762007    1.191783
H      2.189687    1.492119   -1.983471
H      0.608787   -2.334638    0.429996
H     -0.268712   -1.843488   -1.061013
H      0.405859   -0.282327    1.489013
H      2.206662    0.110516    0.720701
H      0.028464    0.742033   -1.314724
H      1.418439    2.151886    0.711842
