53

C      4.016866    1.872412    0.717060
C      1.647410   -0.564768   -1.602354
C     -4.436799   -0.218555   -0.204977
C      3.968032   -0.544617    0.493097
C      1.323391    1.890121    0.092276
C     -2.174960    1.278891    1.546532
C     -1.402645    0.422411   -1.876314
C      3.310019    0.583281    0.586552
C      1.835256    0.572271    0.563424
C      3.289458   -1.817055    0.364395
C     -2.238091    0.953470    0.115710
C     -0.079055    1.953665   -0.374539
C     -1.308309    2.508200    1.622411
C     -0.986023   -1.761606   -0.245541
C     -0.228809   -0.525292    0.087503
C      1.805467   -1.891128    0.407179
C     -2.433017   -1.538658    0.220739
C      1.247296   -0.604755   -0.162907
C     -2.927228   -0.242644   -0.348152
C     -0.839655    0.702195   -0.490039
O      3.996412   -2.874769    0.213175
O     -1.124313    3.110415    2.711816
O     -0.930087   -2.158579   -1.552469
O      1.469393   -2.905055   -0.521952
O     -2.480095   -1.621221    1.589064
O     -2.580744   -0.271629   -1.722136
O     -0.739648    2.922475    0.433862
H      4.115682    2.385683   -0.263936
H      3.528538    2.570510    1.431936
H      5.058701    1.742602    1.095469
H      1.194677   -1.415737   -2.173385
H      1.565547    0.404009   -2.088370
H      2.751781   -0.815889   -1.619255
H     -4.672396   -0.251459    0.860242
H     -4.823084   -1.154440   -0.673379
H     -4.902246    0.614143   -0.754008
H      5.051367   -0.545185    0.510770
H      1.551561    2.630545    0.918041
H      1.992234    2.217487   -0.739958
H     -1.811415    0.522202    2.230701
H     -3.192101    1.643537    1.856161
H     -1.660514    1.428413   -2.303858
H     -0.733303   -0.058361   -2.567300
H      1.521142    0.432249    1.643334
H     -2.619482    1.839798   -0.435187
H     -0.121386    2.438089   -1.406518
H     -0.622082   -2.579948    0.444495
H     -0.318721   -0.413786    1.215030
H      1.433776   -2.119487    1.412631
H     -3.024241   -2.366853   -0.250883
H     -1.401957   -3.015980   -1.637772
H      2.153709   -2.974959   -1.236731
H     -3.015310   -2.386658    1.868315
