219

C      9.459510    0.571583    4.049496
C      7.225656   -0.374839    4.223544
C    -15.200388   -2.385084    1.411032
C    -15.127242    0.129837    1.489733
C     16.673230    1.149355    0.320595
C     -7.988120   -0.585760   -1.126679
C      4.902682   -0.592860   -3.046189
C      7.163075   -1.410060   -2.698104
C      6.596404    1.000384   -2.291612
C     -9.929278   -0.581475    3.446155
C      1.249740    6.004104   -2.318898
C      0.417326    6.711677   -1.495656
C     -1.700180    1.644833   -2.359822
C     12.441159    2.496035    1.581522
C    -13.929480   -3.385636   -2.316570
C      1.683393    4.768748   -1.889505
C      0.033515    6.191300   -0.278266
C     -1.562995    0.209359   -1.906788
C    -13.256111   -4.340369   -1.369686
C     11.385413    2.843853    0.548202
C     13.679664   -5.019681    0.389697
C     15.291608   -3.930326   -0.972593
C     14.569420   -6.036995    0.657617
C     16.208652   -4.953515   -0.712036
C     -9.911386    1.972831    0.768666
C    -10.969244    2.487905   -0.201161
C     -2.032838    1.772751   -3.822340
C     13.122135    1.268485    0.963643
C    -13.063950   -2.144288   -2.305326
C     13.031130   -2.905775   -0.687730
C      2.502461    2.004262   -0.565732
C     -8.699799   -4.210775   -0.742030
C      0.926743    3.066756    1.180112
C     -4.088191    2.831589    1.791854
C     18.031811   -2.100941    0.412013
C      8.190821    0.358134    3.283963
C    -14.510282   -1.183307    1.928405
C     16.460444   -0.355372    0.459835
C     -7.532668   -1.278446    0.159464
C     14.029397   -3.945243   -0.433671
C      1.598337    3.042654   -0.023513
C     15.829481   -5.993450    0.102047
C      1.308282    4.227296   -0.665962
C      0.462906    4.959742    0.155884
C     -1.153136    0.169158   -0.476362
C      2.502543    0.750826    0.244217
C     13.002489   -1.817644    0.393787
C     -9.216385   -4.266186    0.674655
C     -4.300060    1.587571    1.026231
C    -10.299143    0.640843    1.360399
C    -12.105676   -3.458470   -0.787407
C     10.991920    1.501744    0.032954
C    -10.544412    3.799624   -0.757818
C     -9.210906   -5.416298   -1.487863
C      8.435292   -0.489964    2.037627
C    -12.998485   -1.130604    1.548600
C     -6.988017   -0.189040    1.108735
C      5.812911   -0.753087   -0.720886
C     15.148635   -0.772510   -0.090707
C     -2.047578    0.768812    0.506732
C      1.141309    0.160988    0.220127
C     -5.521924    1.575574    0.203262
C    -11.607250    0.850966    2.089022
C    -11.705050   -4.087286    0.458234
C      9.702676    1.139801    0.737166
C      7.209741   -0.712186    1.261502
C      4.742851    0.153304   -0.213135
C     11.973614   -0.822819    0.082138
C     -7.912567    0.160225    2.183025
C    -12.899203   -1.142193    0.077360
C     -8.705572   -3.100984    1.448388
C     -4.515533    1.753960   -3.874231
C      6.150590   -0.417062   -2.178317
Br    17.036713   -7.412734    0.493732
N     -9.420939    4.290043   -0.360461
N     -4.681443    3.028939   -3.774418
N     -5.632747    0.915875   -3.602382
N     -3.252348    1.198837   -4.249305
N      0.266689    4.215106    1.251594
N     17.514799   -1.094073   -0.173390
N      0.201484    0.714879   -0.417165
N      3.500325   -0.156869   -0.258404
N     14.297287   -1.331889    0.660351
N    -10.580804   -4.324531    0.873336
N     -3.248079    1.028706    0.284186
N      9.542299    0.033658    1.330947
N    -12.586749    0.115521    2.102332
N     -6.508185    0.850323    0.312879
N      7.065158   -0.514706    0.000652
N     -9.308572    0.100490    2.272078
N     12.050968    0.548045    0.349391
N    -12.687129   -2.169712   -0.832794
O     19.046720   -2.800934   -0.216417
O    -11.317729    4.479495   -1.670775
O     -9.944760   -6.260345   -0.913184
O     -8.878341   -5.606950   -2.806376
O     14.885461   -0.533186   -1.430763
O     -1.556112    1.072104    1.779564
O      0.903196   -1.022093    0.912860
O     -5.546691    2.529240   -0.843279
O    -11.612488    2.073512    2.820961
O    -12.818586   -4.472583    1.280897
O      8.727301    2.125477    0.667537
O      6.094648   -1.184101    1.944537
O      5.120327    1.374520    0.323410
O     10.919485   -1.298845   -0.485724
O     -7.346253    0.608634    3.258611
O    -13.041330    0.043833   -0.437909
O     -8.466035   -3.336581    2.666107
O     -2.712500    4.349587   -0.190489
O     -3.573094    5.401319    1.957815
O     -5.207852    4.815325    0.277325
O     -8.536523   -1.924268    0.844948
S     -3.966759    4.333334    0.922060
H     10.348524    0.186730    3.498854
H      9.603282    1.660758    4.213973
H      9.471228    0.065069    5.031982
H      6.170185   -0.033450    4.039110
H      7.315176   -1.460773    4.144870
H      7.474559   -0.077610    5.257353
H    -15.147691   -3.262341    2.082639
H    -16.280916   -2.107115    1.233298
H    -14.780582   -2.614832    0.399223
H    -15.506756    0.077207    0.443399
H    -14.381543    0.933589    1.598632
H    -15.982053    0.364283    2.152768
H     17.747737    1.352616    0.220259
H     16.333772    1.677106    1.257649
H     16.101556    1.487223   -0.545733
H     -9.089066   -0.701578   -1.202626
H     -7.630393    0.436786   -1.223128
H     -7.596754   -1.138736   -2.029949
H      4.264974   -1.366901   -2.550377
H      5.167874   -0.869675   -4.079800
H      4.308237    0.335408   -3.038404
H      7.886008   -1.590045   -1.880067
H      6.643644   -2.345057   -3.004200
H      7.716833   -0.982696   -3.551105
H      7.234677    1.293697   -1.457455
H      7.147831    1.154273   -3.243934
H      5.711992    1.666721   -2.326728
H    -10.435616   -1.508523    3.145730
H    -10.706971    0.081152    3.877379
H     -9.213819   -0.792193    4.234609
H      1.573295    6.372339   -3.279598
H      0.066080    7.677705   -1.809399
H     -2.545581    2.151619   -1.820885
H     -0.798012    2.239186   -2.157078
H     11.952183    2.226573    2.518455
H     13.132736    3.345588    1.697578
H    -14.027393   -3.812045   -3.333707
H    -14.961285   -3.160072   -1.939495
H      2.349557    4.181864   -2.532391
H     -0.622473    6.767757    0.350395
H     -0.713400   -0.223163   -2.501300
H     -2.480637   -0.377751   -2.122016
H    -12.835590   -5.222923   -1.865823
H    -13.894486   -4.633008   -0.512597
H     11.790810    3.512754   -0.238959
H     10.535053    3.377180    1.015523
H     12.685951   -5.017337    0.807463
H     15.617926   -3.138405   -1.620480
H     14.271440   -6.864404    1.305003
H     17.206673   -4.925059   -1.147913
H     -9.025871    1.810457    0.124771
H     -9.787796    2.746609    1.524171
H    -11.060122    1.815968   -1.081236
H    -11.945351    2.660372    0.296196
H     -1.149483    1.416428   -4.444492
H     -2.049371    2.873542   -4.039806
H     13.609525    0.716028    1.759564
H     13.807795    1.669117    0.165136
H    -13.664152   -1.283784   -2.551914
H    -12.167861   -2.333718   -2.888466
H     12.001901   -3.363896   -0.742682
H     13.203002   -2.463280   -1.681454
H      3.462752    2.453678   -0.795073
H      2.064439    1.736389   -1.583246
H     -7.598642   -4.335077   -0.708599
H     -8.927410   -3.287112   -1.263863
H      0.935187    2.295572    1.924779
H     -4.957514    2.902239    2.523932
H     -3.210887    2.689069    2.474512
H     17.701933   -2.425797    1.384484
H      7.720439    1.321356    3.055661
H    -14.498451   -1.154955    3.054728
H     16.508997   -0.552559    1.567276
H     -6.691587   -1.952072   -0.178897
H     -1.033495   -0.941963   -0.245328
H      2.803343    0.947272    1.313525
H     12.613555   -2.333430    1.346852
H     -8.651946   -5.168299    1.111148
H     -4.539725    0.808566    1.847597
H    -10.516793   -0.127423    0.607187
H    -11.329490   -3.559204   -1.600307
H     10.831601    1.543852   -1.071534
H      8.780271   -1.488647    2.468334
H    -12.541278   -1.955845    2.076218
H     -6.066696   -0.700395    1.548652
H      5.501671   -1.799076   -0.688638
H     -9.034303    5.192147   -0.684796
H     -3.891544    3.665544   -3.965330
H     -6.469994    1.308286   -3.125123
H     -5.664665   -0.089069   -3.861148
H     -3.266503    0.351523   -4.850243
H     -0.338176    4.513774    2.063248
H     19.600430   -2.388992   -0.974139
H    -10.914066    5.287020   -2.166500
H     -9.151139   -6.470034   -3.286450
H     13.961271   -0.206484   -1.730428
H     -2.004250    0.699118    2.638704
H      0.040581   -1.143855    1.456412
H     -6.452455    2.862901   -1.204268
H    -12.444761    2.347790    3.343099
H    -12.741882   -4.499798    2.289076
H      7.758737    1.996728    0.808814
H      5.329063   -1.622901    1.451586
H      4.633885    1.770269    1.144397
H     -2.078219    3.607820   -0.044687
