32

C     -1.070407    3.370499    2.531147
C     -0.814498   -1.349272    0.943928
C     -3.123417    0.358757   -0.068775
C     -1.342817    2.881312    1.582240
C      3.384433   -2.186694   -1.661921
C      3.140961   -2.235014   -0.322298
C      2.735299   -1.259115   -2.462973
C      2.219391   -1.328147    0.244710
C      1.854154   -0.400522   -1.890298
C     -1.691601    2.208532    0.301911
C      0.600882    0.528751    0.110795
C     -0.775308   -0.050007    0.147063
C      1.574232   -0.413157   -0.524900
N     -1.842411    0.805903    0.499694
H     -0.763744    3.888904    3.526978
H     -0.488865   -2.210206    0.299495
H     -0.268656   -1.314291    1.888398
H     -1.872896   -1.545551    1.211291
H     -3.862393    1.162453    0.085941
H     -3.008183    0.017324   -1.112501
H     -3.467120   -0.497761    0.571557
H      4.074065   -2.853998   -2.173767
H      3.655868   -2.964922    0.280801
H      2.943973   -1.252341   -3.513775
H      2.083504   -1.430292    1.284457
H      1.351162    0.331556   -2.510278
H     -1.087583    2.536737   -0.535919
H     -2.721575    2.616484    0.061673
H      0.958246    0.862919    1.106777
H      0.599211    1.424039   -0.539684
H     -0.987014   -0.384116   -0.917103
H     -1.986895    0.681237    1.555333
