46

C      8.275391    0.091692   -1.292563
C     -3.565455   -1.645098   -0.193347
C     -0.170418    0.267467    2.414215
C      6.833093    0.321786   -1.074541
C      6.043115   -0.621779   -0.598335
C     -5.732744   -0.588117   -0.513650
C      3.808441   -1.308527    0.087457
C      1.548670   -1.894791    0.744719
C     -6.146363    1.706695   -0.068848
C      2.740157    1.213657   -0.535532
C     -4.429818   -0.459249   -0.141404
C      2.396500   -0.997808    0.272384
C     -6.580808    0.477846   -0.478800
C      4.597010   -0.366554   -0.387918
C      1.878158    0.329499   -0.064437
C     -4.803134    1.872694    0.322765
C      0.151040   -1.585981    0.927431
C     -3.948631    0.779334    0.282851
C      0.458238    0.673218    0.110417
C     -2.560345    0.855219    0.661173
C     -0.361936   -0.176270    0.975730
O     -7.920985    0.359284   -0.858320
O     -4.373629    3.087497    0.728083
O     -0.639640   -2.558404    1.047706
O      0.027489    1.681736   -0.496340
O     -2.059822    1.928087    1.048117
O      4.077004    0.882576   -0.698308
O     -1.731607   -0.232502    0.614402
H      8.881747    0.992966   -0.990294
H      8.653940   -0.735511   -0.628557
H      8.524421   -0.094216   -2.354344
H     -4.176885   -2.543517   -0.526595
H     -2.746082   -1.576741   -0.910535
H     -3.263784   -1.938419    0.845774
H     -0.089757    1.371329    2.472635
H     -0.936188   -0.144237    3.094062
H      0.802874   -0.150879    2.749857
H      6.399170    1.281397   -1.305963
H      6.467084   -1.567262   -0.369586
H     -6.107780   -1.568406   -0.848195
H      4.155143   -2.288026    0.343328
H      1.925772   -2.881553    0.996622
H     -6.768697    2.575449   -0.022322
H      2.345537    2.196209   -0.782642
H     -8.310284   -0.518552   -1.171848
H     -3.565199    3.496762    1.038485
