32

C     -3.922975    1.492896    0.115082
C     -0.746090    1.412760   -0.765175
C     -2.070346   -1.922033   -0.744257
C     -3.089031    0.632025    0.511688
C      3.545557    0.666987    2.049954
C      2.878087   -0.517194    2.116659
C      3.336663    1.468052    0.968159
C      1.995494   -0.946665    1.136680
C      2.448649    1.062161   -0.050047
C     -2.199718   -0.317323    0.946124
C      0.854220   -0.524759   -1.044189
C     -0.579859   -0.054029   -0.876176
C      1.776656   -0.129974    0.020644
N     -1.309809   -0.906429   -0.029892
H     -4.672839    2.260785   -0.260422
H     -1.620447    1.793962   -1.381066
H     -0.870383    1.807652    0.240467
H      0.107284    1.976638   -1.238529
H     -3.171549   -1.822380   -0.649581
H     -1.736282   -2.963266   -0.480150
H     -1.878893   -1.754952   -1.834927
H      4.249267    0.993607    2.864305
H      3.039725   -1.112574    3.023688
H      3.819963    2.440266    0.848450
H      1.517802   -1.902700    1.275586
H      2.357817    1.772305   -0.906720
H     -1.645442   -0.066251    1.894888
H     -2.804766   -1.233841    1.317801
H      1.223091   -0.183615   -2.061747
H      0.797878   -1.654827   -1.154357
H     -1.017833   -0.281903   -1.938200
H     -0.611893   -1.485381    0.551730
