80

C     -1.601555   -1.036318   -4.184432
C     -3.430505   -2.844550   -3.752690
C     -2.528606   -0.641138    3.997166
C     -3.568014   -2.009157    2.117963
C      1.483997    4.266708    1.845003
C     -0.449727    5.214765    3.005820
C      4.758831    0.571880   -0.975202
C      2.507256   -2.738401    1.528994
C     -3.275006   -0.855876   -2.398544
C     -2.851526    0.311079    1.747198
C      3.594383   -2.532255   -0.830024
C      4.261168   -1.647188   -1.871066
C     -2.667477    0.425416   -2.025272
C     -3.286961    0.256280    0.332732
C      1.315960    0.268893   -1.012140
C      0.843389   -1.023327    1.106575
C     -2.774524   -1.547625   -3.416100
C     -2.973803   -0.710899    2.567732
C      0.106662    3.948224    2.395661
C      2.222201   -1.941144   -0.771427
C      2.572299   -0.446997   -0.681013
C     -0.711608    2.215601    0.617848
C     -0.799487    3.482837    1.349889
C     -1.692170    1.920515   -0.424182
C      0.207019    1.298245    0.841602
C     -0.994382   -0.383002   -0.379299
C      3.686162   -0.263266   -1.662378
C      1.484377   -2.223809    0.507992
C     -2.141051    0.499852   -0.623430
C      0.332270    0.001353    0.116686
O     -1.759566    4.252592    1.035783
O     -2.141072    2.863078   -1.133583
O      1.137371    1.555526    1.838149
O     -1.164259   -1.586678   -0.618209
O      3.297100    0.335923   -2.842435
O      0.613067   -3.286837    0.289796
H     -1.374806   -1.787647   -4.972781
H     -0.746299   -0.918640   -3.522352
H     -1.862583   -0.066636   -4.636170
H     -4.506840   -2.815512   -3.494330
H     -3.347546   -2.971141   -4.850158
H     -2.912507   -3.700789   -3.243553
H     -2.088375   -1.630159    4.298093
H     -3.407680   -0.401543    4.636970
H     -1.788683    0.165655    4.154116
H     -3.813439   -2.657167    2.964391
H     -2.908525   -2.562686    1.434877
H     -4.554858   -1.767186    1.626629
H      2.290802    3.922461    2.499709
H      1.602759    3.995640    0.774369
H      1.569720    5.396493    1.832533
H     -1.520177    5.021108    3.250143
H     -0.439132    5.994828    2.202093
H      0.102702    5.548466    3.895080
H      5.768922    0.342144   -1.347765
H      4.590441    1.645708   -1.095043
H      4.776083    0.362129    0.119917
H      1.959333   -3.039433    2.467136
H      2.958690   -3.675744    1.151567
H      3.220028   -1.969248    1.827604
H     -4.127920   -1.225832   -1.843239
H     -2.419672    1.226238    2.113679
H      4.173940   -2.431796    0.087360
H      3.593488   -3.583860   -1.182961
H      5.362202   -1.661988   -1.791790
H      3.928286   -1.969921   -2.895129
H     -1.862248    0.712371   -2.753019
H     -3.424026    1.258616   -2.122395
H     -3.764633   -0.710330    0.072488
H     -4.007221    1.107099    0.186442
H      0.859774   -0.155960   -1.930415
H      1.499556    1.343224   -1.171484
H      1.502480   -0.560405    1.886718
H     -0.059265   -1.372772    1.676789
H      0.189808    3.215898    3.244166
H      1.669122   -2.158418   -1.680711
H      2.936022   -0.305103    0.353367
H      2.126160    1.449407    1.748548
H      3.886586    1.121929   -3.013082
H      0.757314   -3.699800   -0.599569
