80

C     -4.646798    0.273302    3.888163
C     -2.116308   -0.047312    4.131992
C     -2.296708   -1.832823   -3.349700
C     -2.857189   -4.202328   -2.559023
C     -2.286892    4.266205    0.843719
C     -2.298341    5.033759   -1.539076
C      4.926735   -0.449724   -2.765131
C      3.248066   -0.132564    2.784307
C     -3.288584   -0.748777    2.125667
C     -2.883709   -2.264444   -1.031219
C      5.023815   -1.030430    0.497175
C      5.324053   -1.799756   -0.784052
C     -2.000852   -1.212112    1.575787
C     -2.712970   -0.840595   -0.761194
C      1.840423   -0.768952   -1.244427
C      1.412202   -0.087405    1.154332
C     -3.334198   -0.202561    3.321183
C     -2.689886   -2.743597   -2.248867
C     -2.212336    3.834786   -0.584359
C      3.537074   -1.004069    0.464261
C      3.286890   -0.504080   -0.968019
C     -0.690778    1.725273   -0.362866
C     -1.009421    3.045745   -0.835111
C     -1.612529    0.925226    0.424778
C      0.482516    1.174178   -0.677810
C     -0.322084   -1.021839   -0.217480
C      4.237029   -1.333953   -1.738170
C      2.895956    0.040342    1.320875
C     -1.634235   -0.549742    0.287036
C      0.903462   -0.177016   -0.239966
O     -0.123566    3.615017   -1.571703
O     -2.392180    1.465183    1.220107
O      1.395809    1.876352   -1.463511
O     -0.267786   -2.162365   -0.629406
O      3.651128   -2.398749   -2.411614
O      3.264901    1.322031    0.918401
H     -4.499830    1.070263    4.640740
H     -5.221037   -0.591864    4.294314
H     -5.256699    0.711440    3.046724
H     -1.667283   -1.068149    4.297887
H     -1.349593    0.512905    3.565946
H     -2.291118    0.426443    5.107595
H     -2.220265   -2.390242   -4.290148
H     -1.335790   -1.338111   -3.095876
H     -3.077398   -1.042326   -3.523946
H     -3.815963   -4.379239   -3.099352
H     -2.851857   -4.821783   -1.660279
H     -2.049219   -4.475299   -3.291684
H     -1.450449    3.967643    1.483227
H     -3.243401    4.014114    1.341592
H     -2.234906    5.403450    0.840188
H     -3.371604    5.321568   -1.694719
H     -1.855712    4.807127   -2.518411
H     -1.772588    5.916890   -1.122935
H      5.955344   -0.848537   -2.987699
H      4.382777   -0.448667   -3.728352
H      5.079589    0.561453   -2.346158
H      2.626877    0.558796    3.367145
H      4.307807    0.194892    2.903662
H      3.159856   -1.182359    3.109829
H     -4.186543   -0.859058    1.547247
H     -3.169885   -2.956822   -0.253150
H      5.417928   -0.014666    0.346164
H      5.443878   -1.541130    1.391508
H      5.140911   -2.894388   -0.580181
H      6.336253   -1.608355   -1.158417
H     -2.121651   -2.309311    1.369373
H     -1.168622   -1.083748    2.311917
H     -3.675034   -0.377751   -0.445616
H     -2.412900   -0.313752   -1.686039
H      1.718191   -1.867073   -1.361801
H      1.609830   -0.330263   -2.242904
H      0.945476    0.740543    1.725724
H      1.139624   -1.022842    1.728945
H     -3.154127    3.267862   -0.789931
H      3.093711   -1.991732    0.621065
H      3.467797    0.570184   -0.991376
H      1.930612    2.639496   -1.077094
H      3.317802   -2.028290   -3.288512
H      2.626503    2.018485    1.218709
