58

C      8.390492    0.043507   -2.401466
C      6.950910   -0.907105   -0.152035
C      0.202859    1.217751    2.841875
C      2.680123   -0.379197    2.177169
C     -5.860882   -0.900220   -2.592597
C      6.919385    0.400977   -2.210899
C     -2.201798   -0.067204    0.683558
C     -3.654550   -0.075889    0.558083
C      4.114862   -0.544573   -0.267538
C     -1.556889    0.924030    1.246747
C      4.816931   -0.624914   -1.398843
C      2.669491   -0.428299   -0.275811
C     -4.331762   -1.042942    0.004661
C      0.536777   -0.250853    0.806086
C     -5.859277    1.188674   -1.263775
C      6.273277   -0.743609   -1.463481
C     -0.058443    0.974114    1.396846
C      1.994230   -0.350663    0.856302
C     -6.933681    1.940613   -1.201872
C     -5.806598   -0.995690   -0.093907
C     -8.121454    1.100642   -1.197158
C     -6.277134   -0.208675   -1.304119
O     -6.962802    3.339900   -1.147629
O     -6.323540   -2.273494   -0.179001
O     -9.341491    1.497761   -1.144272
O     -7.670350   -0.194989   -1.260512
H      8.890045    0.309829   -1.444102
H      8.836177    0.523015   -3.273889
H      8.431064   -1.058438   -2.524819
H      6.456820   -1.621413    0.532683
H      7.045797    0.080965    0.349289
H      7.983946   -1.285520   -0.298511
H     -0.104485    0.351221    3.494659
H      1.167445    1.643556    3.105885
H     -0.548374    2.017088    3.152110
H      2.013093   -0.578103    3.009088
H      3.154303    0.610711    2.319188
H      3.517479   -1.118391    2.171983
H     -5.159098   -1.739567   -2.395260
H     -5.436126   -0.132887   -3.272561
H     -6.733820   -1.342710   -3.114996
H      6.432928    0.557499   -3.216861
H      6.879091    1.336337   -1.602153
H     -1.673253   -0.917855    0.293587
H     -4.197045    0.772959    0.949125
H      4.710833   -0.572481    0.632279
H     -2.171866    1.750899    1.620870
H      4.268055   -0.600294   -2.329979
H      2.117703   -0.402623   -1.198695
H     -3.828846   -1.894601   -0.391128
H      0.192093   -0.422426   -0.254752
H      0.147622   -1.174399    1.336828
H     -4.823437    1.553419   -1.281921
H      6.498263   -1.667580   -2.073697
H      0.350257    1.843785    0.831162
H     -6.234784   -0.505121    0.799559
H     -6.554960    3.817693   -0.340263
H     -6.215607   -2.774221    0.685112
