35

C      3.774507   -0.961836   -0.814684
C      4.052297   -1.269776    0.503157
C      2.541817   -0.456184   -1.169952
C      3.081250   -1.064106    1.451686
C     -2.143760   -0.328856   -0.331499
C     -0.448092   -1.944073    0.239947
C     -3.089400   -1.260193    0.003256
C     -1.414388   -2.883901    0.577634
C      0.187049    1.633208    0.104514
C     -2.808645    3.444485    0.663009
C     -1.330038    3.361199   -0.883083
C     -0.790811   -0.684792   -0.206085
C     -2.738487   -2.529877    0.455533
C      1.560989   -0.246021   -0.226424
C      1.827561   -0.548300    1.079716
C      0.203381    0.312505   -0.571553
F     -3.682512   -3.426418    0.778645
F      0.965422   -0.403982    2.114013
N     -2.465901    3.972978   -0.513401
N     -1.895298    2.523340    1.006679
N     -0.954691    2.457757    0.042030
O      0.132217    0.455390   -1.982483
H      4.518483   -1.113763   -1.576396
H      5.018219   -1.670671    0.812710
H      2.365726   -0.229475   -2.206471
H      3.299840   -1.305332    2.481095
H     -2.414559    0.650962   -0.717662
H      0.575093   -2.293629    0.324155
H     -4.128788   -0.976619   -0.095215
H     -1.113126   -3.856365    0.923089
H      1.048047    2.215765   -0.393065
H      0.588848    1.514138    1.146584
H     -3.698440    3.749676    1.212535
H     -0.798364    3.586027   -1.819576
H      0.174557   -0.423259   -2.412439
