22

C     -2.489755    1.893410    0.272989
C     -1.758648   -1.981065   -0.301274
C      3.171417    0.157288   -0.310950
C      2.718338   -0.406426    0.873720
C      2.333048    0.561319   -1.307303
C      1.337666   -0.553303    1.022520
C      0.969238    0.393279   -1.109738
C      0.461117   -0.158527    0.041724
N     -2.039680    0.744031   -0.439630
O     -1.566961   -0.236080    1.764225
S     -1.245490   -0.374620    0.301670
H     -2.690390    1.688166    1.343065
H     -1.787956    2.736314    0.120456
H     -3.463366    2.210777   -0.165945
H     -2.846981   -1.957686   -0.407351
H     -1.495776   -2.755418    0.472436
H     -1.259196   -2.222148   -1.242009
H      4.237968    0.268130   -0.420106
H      3.360740   -0.725453    1.657990
H      2.742422    0.993416   -2.207527
H      0.990434   -0.996292    1.954592
H      0.321810    0.720890   -1.913554
