28

C     -3.125325   -1.057955    0.061444
C     -2.033940   -1.655746   -0.534446
C     -2.986898    0.143411    0.726861
C     -0.793969   -1.043888   -0.462418
C     -1.736318    0.715364    0.773413
C      1.640909    0.208400    1.278718
C      1.310604    1.023110   -1.069046
C     -0.618034    0.155072    0.193271
C      0.678761    0.820530    0.291138
C      2.170987   -1.099220    0.924932
N      0.264931    1.619699   -1.914429
O      1.537894   -2.133120    1.240592
O      3.362989   -1.269046    0.243446
Cl     0.692504    0.000000    0.000000
H     -4.120810   -1.491862    0.036994
H     -2.188912   -2.596724   -1.044993
H     -3.835419    0.632398    1.204048
H      0.030046   -1.560955   -0.955946
H     -1.644838    1.658856    1.300005
H      2.448113    0.981892    1.439045
H      1.093572    0.191191    2.264204
H      1.628686    0.094954   -1.541596
H      2.111203    1.775508   -0.971748
H      0.512990    1.865174    0.702263
H     -0.087903    2.465478   -1.435625
H      0.563844    1.743696   -2.884540
H      3.816838   -2.186217    0.134413
H     -0.692504    0.000000    0.000000
