22

C     -3.139674    1.164241   -0.644242
C     -1.732076   -1.180892    0.993894
C      3.451094    0.180542   -0.085467
C      2.885325   -0.879180   -0.757920
C      2.622851    1.098482    0.505075
C      1.523585   -1.033981   -0.848336
C      1.244451    0.940530    0.412749
C      0.676178   -0.119322   -0.259772
N     -1.716420    1.165060   -0.363170
O     -1.499197   -0.923236   -1.627692
S     -1.043822   -0.256617   -0.336807
H     -3.442505    0.295348   -1.246406
H     -3.457459    2.115516   -1.097722
H     -3.629689    1.064655    0.367876
H     -1.917602   -2.231042    0.681246
H     -1.076102   -1.131810    1.907313
H     -2.698392   -0.734976    1.284159
H      4.531146    0.292913   -0.020398
H      3.560737   -1.586232   -1.213023
H      3.071769    1.940463    1.039363
H      1.140552   -1.878660   -1.384761
H      0.645250    1.698198    0.899631
