29

C     -4.486126    0.851526    0.493837
C     -3.607633    1.444153   -0.379652
C     -4.040824   -0.243162    1.238043
C     -2.320874    0.982662   -0.527888
C     -2.745839   -0.685419    1.069988
C      3.908681   -0.872787    0.168599
C     -1.847286   -0.106505    0.199733
C      2.395387   -0.942943    0.039894
C      4.200260    0.449318   -0.442396
C     -0.460176   -0.602674    0.038815
C      2.204226   -0.288395   -1.334531
C      0.626431    0.401232    0.295269
C      0.833465    0.315013   -1.177789
O      5.160989    1.172472   -0.130435
O      1.754670   -0.094141    0.925783
O      3.228841    0.688787   -1.379050
O     -0.137992   -0.670133   -1.335857
H     -5.509084    1.187992    0.637555
H     -3.944567    2.285789   -0.954098
H     -4.740111   -0.704857    1.924824
H     -1.660895    1.462636   -1.213681
H     -2.398989   -1.533466    1.645730
H      4.335622   -1.664530   -0.467064
H      4.236064   -0.933828    1.221758
H      2.012507   -1.969918    0.050003
H     -0.252850   -1.539577    0.556012
H      2.277964   -1.008391   -2.150932
H      0.284418    1.387556    0.663028
H      0.693722    1.231592   -1.759358
