46

C     -4.736764    1.217101    0.528120
C      5.780006   -1.369174   -0.920332
C      5.543189   -0.133095   -1.474600
C      4.882484   -1.824645    0.039889
C      4.452068    0.598981   -1.072922
C      3.796258   -1.073966    0.426729
C     -3.033718   -1.926194   -0.064245
C     -3.087949   -1.341028   -1.431541
C     -2.148501   -0.046223    1.242692
C     -2.219354    0.966697   -0.972737
C      2.528924    1.350023    1.737910
C      3.554581    0.159996   -0.122546
C     -3.411481   -0.767487    0.865046
C     -3.463450    0.120056   -1.197829
C     -1.341608    0.237000   -0.002425
C      2.394387    0.986901    0.275668
C      1.104030    0.315438   -0.008941
N     -4.259545    0.003326   -0.008404
O      1.418264    2.127970    2.075266
O      1.098408   -0.830311   -0.532643
O     -0.121504    0.856072    0.259459
Br     0.763549    0.000000    0.000000
H     -4.729721    1.993678   -0.289578
H     -4.204986    1.609332    1.398845
H     -5.829738    1.085154    0.778101
H      6.639225   -1.960771   -1.227633
H      6.249239    0.212255   -2.222267
H      5.101250   -2.807501    0.457199
H      4.299806    1.565186   -1.531379
H      3.129652   -1.471482    1.175176
H     -3.838181   -2.707873    0.065674
H     -2.097362   -2.400467    0.215857
H     -3.956718   -1.787882   -1.990508
H     -2.191555   -1.458809   -2.032102
H     -1.557453   -0.744736    1.882610
H     -2.327199    0.897678    1.763299
H     -2.577697    1.941843   -0.594912
H     -1.710743    1.051666   -1.951839
H      2.628669    0.474323    2.397913
H      3.414890    1.997490    1.888803
H     -3.913073   -1.183762    1.738295
H     -4.098621    0.508920   -2.005855
H     -1.102977   -0.750281   -0.457945
H      2.409743    1.934688   -0.299864
H      1.534824    2.373914    3.028434
H     -0.763549    0.000000    0.000000
