43

C      6.466203   -0.109402   -1.579234
C      5.411430    0.485890   -0.611637
C      5.181637   -0.559941    0.423951
C      4.238022   -0.284318    1.521438
C      2.831338    0.033942    1.194933
C     -0.672912    1.161119   -1.084528
C     -1.912705    0.629247   -0.921616
C     -6.849982    0.430703   -0.050610
C     -3.985582   -1.460245   -0.906789
C      0.325137    0.896335   -0.145361
C      2.599118    1.287184    0.458948
C     -3.507608   -0.719894    0.315097
C     -5.643302   -0.449485    0.186021
C     -1.223323   -0.390786    1.020124
N      1.472693    1.426910   -0.355263
N      0.012498    0.123603    0.882104
N     -2.199881   -0.149929    0.129332
O     -7.242024    1.098178    1.104313
O      3.418752    2.227465    0.574546
O     -1.462114   -1.191679    2.130315
O     -5.334816   -1.069258   -1.028055
O     -4.486293    0.292938    0.418091
H      6.901505    0.686974   -2.192977
H      7.245394   -0.564576   -0.946417
H      5.993000   -0.862612   -2.235925
H      5.870192    1.391920   -0.194759
H      4.519280    0.692651   -1.244181
H      6.205244   -0.765046    0.882605
H      4.965600   -1.541591   -0.099002
H      4.636429    0.590774    2.114268
H      4.257263   -1.172034    2.209697
H      2.232764    0.154799    2.153770
H      2.326700   -0.838356    0.697226
H     -0.464666    1.785573   -1.938422
H     -2.677222    0.835398   -1.646153
H     -6.671083    1.141997   -0.868754
H     -7.684931   -0.233618   -0.343687
H     -3.977241   -2.557741   -0.772423
H     -3.475174   -1.115049   -1.809663
H     -3.520262   -1.368753    1.206187
H     -5.807313   -1.161817    0.993463
H     -6.777454    1.984583    1.203348
H     -1.534311   -0.792055    3.042176
