46

C      3.700445   -1.365346   -0.727953
C     -3.457921   -0.999541   -1.836944
C      5.008828   -1.614535   -0.376319
C     -4.763135   -0.712182   -2.169150
C      1.674272    0.079758   -0.761819
C     -1.634651   -1.134610   -0.113374
C      3.839235    0.730121    0.347534
C     -3.944208   -0.391002    0.389881
C      0.761012    0.147590    1.593673
C      7.422277    0.675710    1.079636
C     -7.400507    0.737356   -0.131396
C      3.081287   -0.167024   -0.365635
C     -3.016284   -0.839925   -0.520762
C      0.681065   -0.427852    0.222175
C     -0.698382    0.047171   -0.237269
C      5.769418   -0.718241    0.337602
C     -5.686659   -0.262771   -1.250859
C      5.168520    0.468038    0.700525
C     -5.258484   -0.100573    0.060262
C     -1.014139    1.102849    0.792492
O     -0.235663    2.233282    0.562898
O     -0.537087    0.510102    1.960595
O      7.081380   -0.695396    0.823744
O     -7.036062    0.092956   -1.319602
O      6.127791    1.190330    1.401231
O     -6.368494    0.353091    0.758545
H      3.161162   -2.096521   -1.280971
H     -2.714931   -1.352978   -2.537612
H      5.474588   -2.549553   -0.665295
H     -5.097370   -0.837702   -3.187429
H      1.572407    1.165652   -0.958730
H      1.496597   -0.430072   -1.722835
H     -1.265679   -1.955414   -0.766934
H     -1.662447   -1.541189    0.908856
H      3.417935    1.667562    0.648940
H     -3.658530   -0.249610    1.427348
H      1.363154    1.072276    1.677131
H      1.086796   -0.644844    2.296162
H      8.133730    0.783445    1.896887
H      7.741596    1.115680    0.121305
H     -8.402482    0.453890    0.243805
H     -7.301108    1.840547   -0.276093
H      0.706626   -1.540171    0.210353
H     -0.663347    0.451681   -1.256039
H     -2.053147    1.419689    0.827330
H     -0.599403    2.948670    1.174111
