23

C     -1.185438   -0.419918    0.286405
C      0.018949    0.225053   -0.356066
C      1.288032   -0.398164    0.118296
O     -0.015806    1.579143   -0.043241
O      1.984957    0.237477    0.921861
O      1.665131   -1.648614   -0.332342
C     -1.122829    0.065172   -0.565722
C      0.063010    0.037380    0.371092
C      1.343731    0.159008   -0.372995
O      0.042798   -1.067335    1.192174
O      1.425092   -0.080913   -1.606553
O      2.501844    0.550058    0.300496
Sr     0.000000    0.000000    0.000000
H     -0.920540   -0.718750    1.309868
H     -2.022517    0.335302    0.305184
H     -1.562646   -1.258847   -0.321772
H     -0.014320    0.067048   -1.460951
H      0.764198    2.000270   -0.427242
H     -1.545067   -0.948530   -0.735585
H     -0.834774    0.443831   -1.573544
H     -1.939129    0.727270   -0.191666
H     -0.027859    0.941621    1.020959
H      0.093183   -0.827562    2.161345
