46

C      5.272797    0.808805   -0.423879
C     -5.907439   -1.412771    0.557288
C     -5.676520   -1.006714   -0.740774
C     -5.002127   -1.087775    1.561582
C     -4.550733   -0.274624   -1.069160
C     -3.892536   -0.362025    1.217763
C      3.655809   -1.007131    1.490522
C      3.536227   -1.737064    0.184909
C      1.947596    0.685209    1.118370
C      1.921912   -0.459560   -1.115406
C     -2.397399    2.135110    0.372340
C     -3.656549    0.049375   -0.091627
C      3.440333    0.435282    1.096364
C      3.419534   -0.665529   -0.862385
C      1.187955   -0.166633    0.166766
C     -2.454541    0.824341   -0.410145
C     -1.256758    0.041129   -0.009195
N      3.880192    0.569937   -0.264018
O     -3.495155    2.921571    0.077791
O     -1.367530   -1.096444    0.512609
O     -0.000642    0.548625   -0.202498
Br     0.765778    0.000000    0.000000
H      5.395486    1.624462   -1.191710
H      5.822627   -0.068313   -0.854222
H      5.784794    1.182449    0.488133
H     -6.770761   -1.981272    0.843202
H     -6.377892   -1.258231   -1.520115
H     -5.146870   -1.387784    2.593982
H     -4.428318    0.013776   -2.109071
H     -3.160244   -0.090208    1.987187
H      2.852069   -1.364473    2.180010
H      4.610863   -1.177153    2.011367
H      4.392670   -2.413834    0.025985
H      2.626642   -2.383377    0.176962
H      1.608397    0.437715    2.165288
H      1.757221    1.779697    0.956577
H      1.829675    0.402349   -1.781248
H      1.538019   -1.339227   -1.630463
H     -2.356321    1.904647    1.442804
H     -1.495407    2.665904    0.022817
H      3.916228    1.152160    1.782342
H      3.894580   -0.902937   -1.813219
H      0.849196   -1.129743    0.600547
H     -2.420320    1.065049   -1.471199
H     -3.326756    3.525230   -0.679900
H     -0.765778    0.000000    0.000000
