29

C      3.123847   -0.531658   -0.037776
C     -1.200506    1.993844   -0.497012
C     -1.902177    0.663622   -0.643154
C      0.273610    1.757476   -0.553682
C     -1.575666   -1.609160    0.182522
C     -0.067205   -1.561537    0.052998
C      2.313798    0.630713   -0.519141
C     -1.883253   -0.168871    0.589978
C      0.940672    0.709983   -0.098188
C      0.408894   -0.346039    0.775844
N     -0.796938    0.108551    1.487486
O      2.808182    1.512234   -1.265963
Cl     0.692810    0.000000    0.000000
H      3.543553   -0.217035    0.946672
H      3.920435   -0.703765   -0.778258
H      2.455310   -1.398251    0.099880
H     -1.491526    2.538023    0.422240
H     -1.456168    2.603473   -1.388330
H     -2.971172    0.834213   -0.930458
H     -1.383834    0.133223   -1.485733
H      0.849070    2.556312   -1.031681
H     -1.904704   -2.321998    0.954524
H     -2.061074   -1.777128   -0.806505
H      0.311816   -2.506611    0.535148
H      0.267669   -1.605879   -1.005387
H     -2.821624   -0.114770    1.179161
H      1.189628   -0.635879    1.516339
H     -0.890636   -0.543084    2.298476
H     -0.692810    0.000000    0.000000
