43

C      1.304707    1.081292    1.504191
C     -0.503470   -2.961653    0.502745
C     -3.855845    2.264421   -1.232657
C     -2.705086    1.762173   -1.765802
C     -3.871981   -1.165296    2.040458
C     -4.435576    1.654983   -0.141873
C     -4.462131   -0.043203    1.495100
C     -2.146989    0.641101   -1.187867
C     -2.692136   -1.686478    1.499456
C      3.597331    1.729867    0.904748
C      4.751787    1.626003    0.141062
C      3.683298   -0.084759   -1.093881
C      2.488187    0.922535    0.663370
C     -0.828380   -1.619962   -0.184335
C     -3.856317    0.541024    0.410657
C      4.781330    0.704555   -0.865771
C     -2.085409   -1.101690    0.413816
C     -2.698578    0.015480   -0.106504
C      2.529458    0.005941   -0.344943
C      1.381921   -0.845533   -0.604380
N      5.949425    0.583731   -1.656304
N      0.295343   -0.788456    0.066490
O      1.457998   -1.788651   -1.648819
H      1.131308    0.125413    2.074577
H      1.472766    1.832419    2.334811
H      0.381921    1.383286    0.965993
H      0.306318   -3.448593   -0.046191
H     -1.407013   -3.617927    0.467856
H     -0.228754   -2.761764    1.558523
H     -4.284212    3.138739   -1.689101
H     -2.207010    2.203078   -2.624288
H     -4.350866   -1.624880    2.895999
H     -5.351116    2.109640    0.229494
H     -5.388395    0.374860    1.912390
H     -1.247062    0.243895   -1.601170
H     -2.284667   -2.564761    1.974548
H      3.579612    2.456023    1.695446
H      5.578995    2.283522    0.380688
H      3.721673   -0.819959   -1.906001
H     -1.009550   -1.875187   -1.246232
H      6.433335   -0.317395   -1.861539
H      6.370623    1.444044   -2.071378
H      0.703206   -2.011877   -2.253383
