60

C      5.989401    0.906277   -2.732400
C      1.353569    1.334515   -1.672103
C      2.605377   -2.781648    3.494642
C      3.891688    0.065449   -1.508288
C      3.411638    1.051293   -0.432912
C     -0.543666   -1.819452    2.526018
C     -2.675134    2.448888   -2.439519
C      5.371795    0.133448   -1.621711
C      1.885061    0.970030   -0.325463
C      1.886098   -2.327976    2.240810
C      0.499872   -2.925245    2.275413
C     -0.394893   -0.869972    1.372044
C     -2.990602    1.353414   -1.479824
C     -4.362139    1.510559   -0.840814
C     -4.673717    0.163730   -0.200542
C     -3.596066   -0.113839    0.803661
C      1.016506   -0.350473    1.372669
C     -2.192244    0.085237    0.253515
O     -2.654492    3.707727   -1.889075
O      6.132351   -0.421567   -0.837321
O      0.270481   -3.523769    1.038084
O     -5.328512    1.865026   -1.776052
O     -5.891041    0.194524    0.471600
O     -3.747470   -1.428313    1.236096
O      1.593921   -0.296422    0.111317
O      1.850942   -0.939276    2.282681
O     -1.341349    0.124468    1.334746
O     -2.078798    1.270416   -0.439025
H      6.868985    0.322802   -3.085245
H      5.237200    1.057191   -3.535237
H      6.331473    1.898562   -2.346757
H      1.999568    2.160993   -2.093195
H      1.441424    0.514067   -2.415038
H      0.324175    1.747222   -1.673123
H      2.510028   -2.003011    4.302416
H      3.689151   -2.826772    3.267568
H      2.221234   -3.745782    3.879658
H      3.469500    0.313198   -2.503075
H      3.583432   -0.965157   -1.255578
H      3.749372    2.056746   -0.688564
H      3.886868    0.725716    0.509684
H     -0.232916   -1.338364    3.475576
H     -1.508602   -2.325643    2.575777
H     -3.491047    2.446919   -3.217432
H     -1.748902    2.170477   -2.981961
H      1.613013    1.768746    0.393480
H      2.442281   -2.741810    1.392764
H      0.448040   -3.721341    3.035717
H     -0.566688   -1.498039    0.447795
H     -3.042232    0.401611   -2.067111
H     -4.367756    2.256900   -0.022500
H     -4.681121   -0.579854   -1.032174
H     -3.727276    0.608147    1.641308
H      0.939994    0.732014    1.698753
H     -2.004495   -0.743951   -0.447868
H     -3.485602    4.210481   -1.949282
H     -0.647372   -3.873595    0.969806
H     -6.085811    2.327731   -1.358367
H     -5.745101    0.812332    1.256035
H     -4.709394   -1.555588    1.440507
