67

C      3.905843   -2.480260   -0.796386
C     -1.195403    1.938828   -1.945975
C     -1.211880    1.121031    1.018191
C      4.217521    1.726714   -1.468948
C      3.711193    1.245032   -0.273366
C      1.528221   -0.217757    3.736952
C      0.890493   -0.752778    2.505228
C      4.481740   -0.494197   -2.182823
C     -2.824944   -1.235845   -0.849327
C     -3.544485    1.012884   -1.044167
C     -5.116090   -0.643701   -0.474459
C      3.228770    0.634348    2.302695
C      3.965046   -1.006247   -0.961083
C     -1.121480    0.544626   -1.354771
C     -2.500719    0.073116   -1.114964
C     -4.100390   -1.606897   -0.534183
C     -4.834234    0.661346   -0.727243
C      4.611089    0.833652   -2.442933
C      3.581679   -0.118270   -0.012079
C      2.975498   -0.499170    1.256045
C      0.831380   -0.026949    0.138586
C     -4.504073   -3.006353   -0.234814
C     -5.922392    1.691231   -0.619180
F      5.113489    1.310190   -3.621964
F     -4.880436   -3.664328   -1.394645
F     -3.508530   -3.699879    0.399618
F     -5.594196   -2.990050    0.646504
F     -7.141597    1.017135   -0.594598
F     -5.884423    2.593592   -1.650343
F     -5.779734    2.317702    0.634108
N      2.937238    0.032796    3.591219
N     -0.405685    0.555724   -0.053403
N      1.507302   -0.461914    1.256876
O      1.495249   -0.197004   -0.999693
C     -1.147043   -0.249848   -0.073867
O      1.574497   -0.744233    0.418714
O      0.839378    1.257837   -1.136699
O      0.524478    1.438670    1.249435
S      0.462875    0.483694    0.085558
H      4.977283   -2.857240   -0.787153
H      3.432967   -2.981185   -1.642974
H      3.532880   -2.752465    0.204097
H     -0.251394    2.168045   -2.520493
H     -2.001060    1.947219   -2.715947
H     -1.349724    2.741147   -1.227008
H     -0.595856    1.496765    1.881781
H     -1.758430    2.019068    0.594096
H     -1.965033    0.423870    1.404840
H      4.326390    2.791307   -1.679455
H      3.425583    2.024438    0.438614
H      1.019320    0.720112    4.076950
H      1.394578   -0.952324    4.555519
H      0.956407   -1.904048    2.595078
H     -0.196352   -0.594720    2.558241
H      4.784476   -1.216438   -2.943404
H     -2.044731   -1.994559   -0.907176
H     -3.335784    2.049635   -1.248863
H     -6.119600   -0.955094   -0.192590
H      4.229142    1.012330    2.278896
H      2.497843    1.417281    2.064096
H     -0.577397   -0.059062   -2.054701
H      3.402079   -1.400929    1.671661
H      3.305356    0.648499    4.358193
H     -1.735136    0.202789   -0.895049
H     -1.058220   -1.354611   -0.243998
H     -1.656491   -0.130041    0.909109
H      2.195663   -0.904258   -0.313203
