72

C     -3.064418    4.932590    0.815269
C     -0.110612   -1.434686   -3.252343
C     -4.305258    4.576723    0.075775
C      1.950830   -4.425357    1.962666
C     -3.009794   -6.135872    0.896707
C      2.072800   -3.933999    0.690706
C     -3.503738   -4.853355    0.799853
C      3.924317    2.576428   -0.994542
C      2.996697    2.345991    1.160444
C     -2.897415    0.468018    0.399992
C     -3.214729    0.236032   -1.914606
C      4.245323    3.895264   -0.733585
C      3.310046    3.673582    1.447578
C     -3.335921    1.778822    0.355540
C     -3.652275    1.543231   -1.960614
C      1.343373   -3.673806    2.940829
C     -1.763395   -6.444311    0.366751
C      2.943257    0.368056   -0.309461
C      0.972358   -1.950261    1.421287
C      1.737728   -2.176085   -0.983415
C     -0.353479   -0.999801   -1.772870
C      3.302704    1.797244   -0.057681
C      1.577760   -2.681336    0.416414
C     -2.823020   -0.341390   -0.725935
C     -3.724937    2.343721   -0.839892
C      3.936704    4.447190    0.493790
C     -2.714155   -3.910460    0.162910
C      1.579016    0.259000   -0.863777
C     -1.478365   -4.238610   -0.356859
C     -1.174907   -2.002816   -1.097651
C     -3.143531   -2.625006    0.033490
C      5.548302    6.000965    1.322935
F      5.701451    7.349149    1.507115
F      5.661919    5.294361    2.507087
F      6.478224    5.495120    0.444261
N      0.873437   -2.463480    2.644868
N     -1.036214   -5.500290   -0.239997
N     -0.768400   -3.270876   -0.961410
N      0.975985   -0.981769   -1.210521
N     -2.370987   -1.683352   -0.595051
O      0.917783    1.330321   -1.039529
O     -4.263727   -2.276319    0.490837
O     -4.173739    3.650932   -0.947636
O      4.259526    5.769443    0.752092
H     -3.207425    4.672084    1.890922
H     -2.196956    4.434998    0.355077
H     -2.949993    6.055282    0.786627
H     -1.046507   -1.855444   -3.676317
H      0.764701   -2.077136   -3.330587
H      0.091350   -0.505141   -3.823324
H     -4.797086    5.500216   -0.343075
H     -5.093114    4.163383    0.774847
H      2.322054   -5.408276    2.244862
H     -3.591152   -6.925588    1.390741
H      2.560529   -4.542442   -0.084707
H     -4.455875   -4.565185    1.190378
H      4.175938    2.165891   -1.963248
H      2.510689    1.761502    1.914501
H     -2.585217    0.015875    1.354017
H     -3.171058   -0.366792   -2.821789
H      4.740965    4.521599   -1.471962
H      3.072872    4.115821    2.406967
H     -3.381021    2.377218    1.257027
H     -3.965578    2.009648   -2.907423
H      1.247350   -4.074596    3.963373
H     -1.434765   -7.480543    0.480149
H      3.105258   -0.231784    0.600213
H      3.714498   -0.006619   -1.042387
H      0.589465   -0.959206    1.171431
H      2.824562   -1.934302   -1.150360
H      1.505544   -2.997708   -1.673773
H     -0.776554    0.008295   -1.816407
