41

C      6.758819   -1.587335   -0.600132
C     -3.387173   -1.680933   -0.460380
C     -4.806323   -0.782090    1.276011
C     -4.049084    1.142041   -1.482035
C      6.779238   -0.096297   -0.258835
C     -1.557140    0.795695    0.025556
C      2.855507    1.545495   -0.982957
C     -3.368665   -0.823346    0.762135
C     -2.920348    0.567401    0.566769
C      3.049795    0.536833   -0.094348
C     -0.522606    0.198132    0.937185
C      0.884689    0.427212    0.437127
C      4.405324   -0.032042    0.157739
N     -3.924194    1.412575   -0.073789
N      1.991855    0.086713    0.529948
O     -0.624914   -1.198377    0.977583
O      4.609098   -0.963590    0.973689
O      5.507429    0.462404   -0.517353
S      1.027451    1.767780   -0.823527
H      6.530701   -2.210042    0.274297
H      5.983500   -1.695190   -1.413642
H      7.716823   -1.821869   -1.077413
H     -2.467284   -1.611690   -1.071981
H     -3.433128   -2.746992   -0.108459
H     -4.315838   -1.526858   -1.051536
H     -5.456245   -0.193032    0.629145
H     -5.151149   -1.830603    1.396929
H     -4.763166   -0.340870    2.295751
H     -4.044196    2.100393   -2.042461
H     -5.070514    0.703163   -1.666216
H     -3.250931    0.520743   -1.891603
H      7.538908    0.453489   -0.814471
H      6.925300   -0.036952    0.859382
H     -1.398282    0.386166   -0.993998
H     -1.417475    1.904311   -0.086818
H      3.473018    2.136732   -1.649556
H     -2.782315   -1.321583    1.547865
H     -2.878693    1.007899    1.617973
H     -0.561715    0.655171    1.946884
H     -3.604329    2.397464    0.069821
H     -0.281750   -1.458795    1.879724
