56

C      1.167037    1.926926    1.497632
C     -4.406899    0.614215   -0.809491
C     -4.566797   -0.907256    1.167515
C     -1.487938    1.621619   -1.042518
C      7.308224   -0.148203   -1.502237
C     -2.636218   -1.478993   -2.070789
C     -1.137544    1.373429    1.890014
C     -2.400565    0.649762    1.687534
C     -3.554876   -1.717624   -0.924176
C     -1.415387   -0.696004   -1.787400
C      1.157719    0.143511   -0.723477
C      5.253259   -0.452486    0.583680
C     -0.022449    1.121077    1.190436
C      2.490641   -0.117004   -0.167857
C     -0.009867    0.092557    0.128055
C      4.148533   -0.871945    1.413713
C      5.016892    0.124188   -0.598741
C     -2.367993   -0.181852    0.471866
C      2.741898   -0.681867    0.992584
C      3.651824    0.309966   -1.009614
C     -3.751825   -0.495960   -0.066167
C     -1.372093    0.187377   -0.595062
O      4.338553   -1.421193    2.538408
O      1.727114   -1.114921    1.837255
O      3.434412    0.860869   -2.139077
O      6.086786    0.517354   -1.373787
H      1.605856    1.526640    2.450462
H      1.885693    2.057700    0.687442
H      0.875427    2.982036    1.800799
H     -4.318247    0.476774   -1.919936
H     -5.521051    0.487735   -0.635670
H     -4.189395    1.627992   -0.458555
H     -3.906613   -1.582720    1.764364
H     -5.411888   -1.519884    0.835734
H     -4.864154   -0.007734    1.740317
H     -1.746339    2.343080   -0.276440
H     -0.564605    1.988245   -1.534434
H     -2.263162    1.675571   -1.867262
H      7.133853   -1.168756   -1.903795
H      7.924625    0.401879   -2.239613
H      7.806909   -0.165803   -0.507718
H     -3.259227   -1.022504   -2.890299
H     -2.399535   -2.509661   -2.486977
H     -1.115526    2.148283    2.645760
H     -3.295751    1.312454    1.762654
H     -2.527745   -0.035288    2.581912
H     -3.058732   -2.477226   -0.244485
H     -4.507021   -2.142958   -1.263772
H     -1.094940   -0.172533   -2.712542
H     -0.601602   -1.470629   -1.628747
H      1.241639    1.225119   -1.105288
H      1.086176   -0.411779   -1.691872
H      6.257681   -0.617826    0.944770
H     -0.132051   -0.886061    0.692072
H     -2.008911   -1.211662    0.820802
H      1.576193   -2.108030    1.955264
