75

C     -4.275720    3.883912    0.202857
C      8.464599   -2.854427   -0.160714
C      2.558708    1.222782    1.611879
C      1.874936   -1.017981    1.043170
C     -3.271456    0.772764    2.229213
C     -5.815663   -2.155513    0.392073
C     -5.531355   -3.709414   -1.437202
C     -3.567278   -2.956268   -0.262160
C     -0.767372   -0.866103   -0.807381
C     -3.765725    3.080733    1.383606
C      8.301272   -2.061125    1.134193
C      1.500724    1.027065   -1.514268
C      6.435322    1.647039    0.047317
C      1.422435    0.426848    1.019587
C     -3.765278    1.614251    1.109918
C      5.766857    0.433970   -0.225287
C      0.847933    0.921311   -0.231895
C      2.713156    1.826950   -1.781585
C     -3.047442    1.232933   -0.189716
C      3.964229    1.479632   -1.157885
C     -1.600284    1.407965   -0.109568
C      6.466682   -0.825385    0.176528
C     -4.439706   -0.212452   -1.468154
C     -4.893420   -2.480217   -0.761300
N      4.634878    0.484380   -0.782870
N     -3.547739   -0.032540   -0.572905
N     -0.578395    0.497575   -0.371888
O      2.394757    3.165243   -1.388392
O     -1.260289    2.595473    0.263553
O      5.913641   -1.922584   -0.046909
O     -5.033717    0.821428   -2.184180
O      7.700658   -0.808170    0.783095
O     -4.842820   -1.501670   -1.745134
S      5.187198    2.809963   -0.619665
H     -3.446095    4.056824   -0.536916
H     -4.988716    3.206897   -0.357518
H     -4.750772    4.826296    0.495703
H      8.252313   -2.214830   -1.047060
H      9.529449   -3.193078   -0.209906
H      7.749571   -3.709156   -0.107671
H      2.611930    2.234764    1.164249
H      2.352576    1.419970    2.720128
H      3.529626    0.738569    1.607902
H      2.865462   -1.090547    0.591998
H      2.041968   -1.231449    2.148995
H      1.147654   -1.748933    0.731200
H     -2.286919    1.110467    2.596798
H     -3.136942   -0.266771    1.863329
H     -3.979491    0.698210    3.080861
H     -5.348271   -1.513514    1.135124
H     -6.747908   -1.666007   -0.001084
H     -6.155808   -3.126839    0.830681
H     -4.845417   -4.179340   -2.166020
H     -6.441808   -3.422566   -1.968492
H     -5.792613   -4.478517   -0.700070
H     -3.699166   -3.954576    0.245178
H     -3.278270   -2.273801    0.572428
H     -2.778295   -2.989320   -1.004021
H     -1.077433   -1.520600    0.030107
H      0.142966   -1.260859   -1.342820
H     -1.600491   -0.951673   -1.549038
H     -2.824342    3.518690    1.705639
H     -4.542157    3.239412    2.191040
H      9.268485   -1.853594    1.612701
H      7.631837   -2.571792    1.831997
H      1.804293   -0.054024   -1.826720
H      0.752590    1.244796   -2.360219
H      7.329661    1.895927    0.477558
H      0.602426    0.455593    1.826355
H     -4.842455    1.334420    0.906331
H      0.647658    2.069467    0.058213
H      2.887932    1.927402   -2.881674
H     -3.402513    2.037152   -0.907497
H      3.134755    3.725340   -1.764712
H     -4.461598    1.583222   -2.530244
