71

C     -4.658380   -2.730726   -0.306364
C      2.385816   -1.098737    2.804968
C     -5.793899    2.681357    1.057720
C      6.858766    1.915084    0.212213
C     -4.236604   -1.457522    1.649085
C      4.466532   -1.455946    1.760205
C     -4.906202   -0.120192    1.498761
C      5.205867   -0.173619    1.444926
C     -0.572798    1.385518   -1.028318
C      0.940926    1.434737   -1.020819
C     -2.533011   -1.656327   -1.818790
C      0.738245   -0.864179    0.675966
C     -3.769310   -1.999068    0.319020
C      3.001807   -1.285607    1.658283
C     -4.738372    2.120637    0.523637
C      5.586404    1.672568   -0.052159
C     -3.945168    0.967447    1.052112
C      4.857102    0.369357    0.081625
C     -2.437315   -1.780342   -0.314885
C      2.172618   -1.298389    0.466290
C     -1.626445   -0.548592   -2.204236
C     -2.053203   -0.339273    0.054956
C      2.640001   -0.363203   -0.622318
C     -3.270976    0.486733   -0.231178
C      3.410107    0.780883   -0.035939
C     -4.092275    2.504186   -0.726691
C      4.601714    2.622246   -0.535495
C     -0.987640   -0.041798   -0.965232
C      1.402673    0.036826   -1.358520
C      0.278309   -0.800660   -0.760266
O     -1.431138   -0.123731   -3.314738
O     -4.392117    3.466352   -1.502878
O      4.757394    3.857797   -0.634285
O      1.535262   -0.175721   -2.716315
O      0.303306   -2.057849   -1.307967
O     -3.029669    1.632798   -0.995907
O      3.472485    1.901968   -0.861115
H     -4.368533   -3.149833   -1.280328
H     -5.635452   -2.914516    0.117315
H      1.315971   -0.966183    2.814134
H      2.899100   -1.069450    3.759568
H     -6.272240    3.514721    0.563769
H     -6.165825    2.288454    1.996160
H      7.226750    2.911916    0.061562
H      7.493717    1.120408    0.568562
H     -4.911195   -2.139453    2.162524
H     -3.324515   -1.279429    2.291232
H      4.821916   -2.222882    1.039136
H      4.792785   -1.768659    2.773334
H     -5.402258    0.120237    2.442865
H     -5.648997   -0.234764    0.656188
H      5.049894    0.600521    2.230635
H      6.280006   -0.406434    1.440612
H     -0.894047    1.985559   -0.126630
H     -0.924235    1.886975   -1.976199
H      1.324729    1.639318    0.019842
H      1.298208    2.188442   -1.726244
H     -2.192715   -2.626253   -2.238923
H     -3.571265   -1.499945   -2.173532
H      0.630155    0.079301    1.209429
H      0.241746   -1.670319    1.248319
H     -3.229485    1.258208    1.818142
H      5.170306   -0.353341   -0.690717
H     -1.711648   -2.504515    0.031138
H      2.098159   -2.317850   -0.014289
H     -1.693746   -0.272797    1.093006
H      3.342038   -0.934212   -1.282101
H     -4.081511   -0.081678   -0.775738
H      3.044676    0.992713    0.988342
H      2.236688    0.416955   -3.046582
H      0.620014   -2.056225   -2.257697
