56

C      1.354329   -1.820473   -1.520449
C     -4.515303   -0.780865   -1.060971
C     -4.022658    1.558401   -0.594889
C     -1.341242    1.649678    0.961271
C      6.609236   -1.185124    1.733959
C     -3.001500   -0.550284    2.185714
C     -0.677289   -0.629312   -2.173975
C     -1.777122    0.318296   -1.843947
C     -4.018728   -0.027851    1.271268
C     -1.588797   -0.655310    1.755992
C      1.051743    1.059323    0.112008
C      5.185293   -0.055014   -0.687004
C      0.217171   -0.854924   -1.227923
C      2.450449    0.657573   -0.124462
C      0.137333   -0.171289    0.092047
C      4.407428    0.819710   -1.542822
C      4.646117   -0.551984    0.388919
C     -2.252169   -0.170119   -0.490279
C      3.043435    1.151293   -1.224995
C      3.241837   -0.211127    0.715973
C     -3.667092    0.151741   -0.172066
C     -1.248733    0.192703    0.543562
O      5.005585    1.266603   -2.578114
O      2.342723    2.003842   -2.090981
O      2.705653   -0.684848    1.757078
O      5.290752   -1.394245    1.276856
H      1.687086   -2.244586   -0.578238
H      2.091505   -1.371269   -2.175432
H      0.885276   -2.684723   -2.084738
H     -5.525973   -0.900423   -0.638236
H     -4.027401   -1.762473   -1.104376
H     -4.605542   -0.308871   -2.068680
H     -3.165552    2.126258   -1.009576
H     -4.554883    2.110346    0.224162
H     -4.774351    1.548330   -1.429241
H     -2.408954    1.891431    1.236557
H     -0.773764    1.898086    1.856944
H     -1.081268    2.361283    0.167354
H      7.361517   -1.170026    0.945551
H      6.809929   -1.889560    2.559856
H      6.612947   -0.158563    2.197688
H     -3.289953   -1.559217    2.613306
H     -2.997447    0.097412    3.116964
H     -0.613653   -1.100583   -3.120937
H     -1.344300    1.322586   -1.814984
H     -2.587190    0.309513   -2.589838
H     -4.519125    0.904529    1.679976
H     -4.893737   -0.754198    1.289807
H     -1.310606   -1.701784    1.482503
H     -0.860081   -0.355828    2.549307
H      0.700575    1.816831   -0.605991
H      1.041016    1.436952    1.177645
H      6.207805   -0.309547   -0.916500
H      0.623089   -0.890784    0.822577
H     -2.218467   -1.307670   -0.552424
H      1.953049    1.560156   -2.921106
