22

C      2.976028   -0.941713    0.206349
C     -1.527742   -0.806983   -1.101699
C     -0.069072   -0.657124   -1.036799
C     -0.925996    0.496299    0.792272
C     -2.040926   -0.361757    0.228059
C      0.261500    0.069223    0.019137
N     -3.229373    0.463693    0.062526
O      2.431559    1.808815   -0.482712
O      2.045183    0.929289    1.910291
P      1.941351    0.496367    0.476420
H      3.620932   -1.139624    1.078599
H      3.637474   -0.789932   -0.671769
H      2.379752   -1.870297    0.004401
H     -1.776678   -1.869274   -1.331964
H     -1.918629   -0.126265   -1.889541
H      0.653385   -1.085753   -1.760760
H     -0.724778    0.258860    1.858397
H     -1.084998    1.575041    0.614291
H     -2.225365   -1.217344    0.893739
H     -3.378087    0.976421    0.971573
H     -2.979272    1.182125   -0.678289
H      1.933751    2.609934   -0.162522
