22

C      2.990977    0.551748   -0.377680
C     -1.807004    1.168096   -0.378063
C     -0.349624    1.336068   -0.104410
C     -0.898062   -0.780335    0.600687
C     -2.157143   -0.222936    0.044466
C      0.158192    0.260461    0.437309
N     -2.512810   -1.021594   -1.137977
O      2.178285   -1.627042    1.226021
O      2.114158    0.767535    2.198960
P      1.855990    0.012384    0.930766
H      3.995956    0.175468   -0.114294
H      2.965213    1.652954   -0.494865
H      2.652022    0.039605   -1.319134
H     -2.382652    1.895622    0.229913
H     -2.044490    1.306703   -1.450109
H      0.188535    2.244001   -0.336276
H     -0.954826   -1.096075    1.660067
H     -0.528991   -1.677701    0.039841
H     -2.991860   -0.227894    0.783734
H     -2.186125   -2.014964   -0.950395
H     -1.994326   -0.617239   -1.971514
H      1.708584   -2.124865    0.482954
