38

C     -1.889805    1.263589   -0.029664
C     -2.078247   -1.097180   -0.262187
C     -0.593222    1.074639    0.420176
C     -0.769708   -1.283453    0.192026
C      2.532193   -0.129204   -1.173834
C      3.193763    1.248755    0.615451
C      3.514444    0.466910   -1.975442
C      4.165820    1.842535   -0.168195
C     -5.020814   -0.646117   -0.649670
C     -4.622440    1.298083   -1.574402
C      1.600527   -1.820766    1.249010
C     -2.654730    0.149873   -0.380754
C     -4.037457    0.295958   -0.865261
C     -0.035152   -0.176332    0.531876
C      2.361411    0.258251    0.137108
C      4.337445    1.455258   -1.480684
C      1.342095   -0.348288    1.011292
Cl     5.581187    2.215138   -2.481120
N      2.919749   -2.016056    1.865829
N     -6.168231   -0.225950   -1.212506
N     -5.900692    0.943032   -1.760259
O      1.398047    0.255398    2.282694
H     -2.365431    2.223506   -0.132417
H     -2.678326   -1.949441   -0.535623
H     -0.041416    1.966450    0.679729
H     -0.414934   -2.304354    0.247630
H      1.908475   -0.898313   -1.597302
H      3.050403    1.549099    1.657310
H      3.659631    0.171433   -3.010445
H      4.817455    2.631826    0.239800
H     -4.923277   -1.585898   -0.117580
H     -4.109306    2.191579   -1.902341
H      0.846561   -2.292286    1.873890
H      1.618664   -2.360719    0.280631
H      2.945023   -1.426620    2.733860
H      2.954425   -3.049453    2.119455
H     -7.079050   -0.759605   -1.194242
H      0.634918    0.868725    2.428794
