53

C      1.455841    4.365528    0.649244
C      1.070180    4.009430   -0.757964
C      0.467501    3.920093    1.681585
C      2.618664   -1.403282   -1.952212
C      1.624778   -0.517002   -1.524652
C      3.170289   -2.277462   -1.056581
C      1.019946    2.492584   -0.956323
C     -0.264846    2.698119    1.178339
C     -3.333735   -2.325693    0.757447
C     -3.996882   -1.554392   -1.324209
C     -2.283647   -1.280213    0.719319
C     -2.632396   -1.026844   -1.666055
C      1.783915   -1.411111    0.637191
C     -1.127797    0.351424   -0.573128
C      1.179109   -0.494668   -0.220509
C      2.760668   -2.294308    0.252956
C      0.129505    0.445308    0.234306
C      0.669773    1.836165    0.329204
C      2.738256   -4.443328    1.357846
F      3.491110   -5.110402    2.330250
F      2.748021   -5.119576    0.163230
F      1.454882   -4.259211    1.844416
N     -3.757657   -2.777562   -0.540827
N     -1.747075   -0.937881   -0.545725
O      1.862193    1.751150    1.088146
O      3.319254   -3.187076    1.182854
H      1.503080    5.480217    0.704769
H      2.490045    3.977682    0.843295
H      0.074615    4.469077   -1.002158
H      1.839806    4.459817   -1.426819
H     -0.307805    4.685117    1.897008
H      0.977993    3.648366    2.630861
H      2.970828   -1.424379   -2.971367
H      1.206806    0.155293   -2.246463
H      3.933069   -2.963488   -1.366708
H      0.293480    2.295148   -1.774015
H      2.023518    2.219111   -1.341366
H     -1.185640    2.928625    0.629840
H     -0.538467    2.082221    2.061291
H     -4.273869   -1.977674    1.280070
H     -3.031599   -3.236762    1.354650
H     -4.468014   -0.814114   -0.636532
H     -4.565938   -1.742687   -2.232332
H     -1.422367   -1.656377    1.349844
H     -2.715379   -0.353467    1.196592
H     -2.720315   -0.075948   -2.215015
H     -2.176392   -1.763009   -2.387035
H      1.451812   -1.410366    1.657882
H     -1.875606    1.107014   -0.309527
H     -0.840891    0.555666   -1.639514
H     -0.086258    0.150755    1.309552
H     -4.634901   -3.335608   -0.458908
H      1.658539    1.089978    1.803959
