56

C      5.315535    1.231658   -0.484782
C     -3.698657   -3.267097    0.161569
C     -2.426800   -3.871246   -0.397231
C     -3.483361   -1.787421    0.327902
C     -0.715091    2.470151   -2.048034
C     -0.344034    1.215252   -1.631026
C     -1.569445    3.243763   -1.292812
C     -1.215199   -3.037892   -0.072575
C     -2.697356   -1.320666   -0.908621
C      4.200876   -0.101470    1.128171
C      2.901988    1.280475   -0.325392
C      3.020082   -0.993684    1.366466
C      1.979009    1.046864    0.841537
C     -1.669315    1.475664    0.300446
C      0.948121   -1.059974    0.185684
C     -0.807496    0.662673   -0.433260
C     -2.054889    2.737222   -0.098402
C     -0.455279   -0.665206    0.012634
C     -1.248956   -1.715443   -0.792179
C     -2.409563    4.411279    1.621474
F     -1.552624    5.313117    1.022561
F     -3.470993    5.117277    2.213612
F     -1.809718    3.735158    2.682011
N      4.115032    0.508738   -0.161264
N      1.730622   -0.329293    1.143653
O     -0.686626   -1.839709   -2.039840
O     -2.911210    3.526359    0.643893
H      5.671914    0.831528   -1.474736
H      6.082719    1.103989    0.308255
H      5.116326    2.322755   -0.684116
H     -4.497665   -3.404744   -0.597465
H     -4.045540   -3.769998    1.087544
H     -2.506265   -4.114224   -1.472597
H     -2.293883   -4.846169    0.136868
H     -4.445987   -1.254322    0.297417
H     -2.961742   -1.535186    1.259141
H     -0.345547    2.886052   -2.982084
H      0.319185    0.587618   -2.202269
H     -1.844047    4.228354   -1.645709
H     -0.322432   -3.604340   -0.401170
H     -1.219716   -2.897349    1.045533
H     -3.147538   -1.861343   -1.765158
H     -2.868059   -0.239898   -1.023571
H      5.100424   -0.776371    1.110241
H      4.375345    0.630589    1.963845
H      3.108849    2.382362   -0.337582
H      2.483204    1.027615   -1.303213
H      3.028114   -1.440369    2.391045
H      3.066384   -1.842350    0.662465
H      1.084280    1.654582    0.796876
H      2.547453    1.442951    1.745622
H     -2.069109    1.094954    1.253821
H      1.529316   -1.112657   -0.774027
H      0.989854   -2.135051    0.548548
H     -0.929147   -0.780711    1.050265
H      0.008657   -2.564813   -1.959984
