41

C     -1.469708   -1.161870    0.927332
C      3.871287   -0.274506   -3.004335
C      2.673318   -0.008022   -2.374920
C     -4.492185    2.392569    1.769033
C     -5.647396    2.269115    2.476622
C      3.707933   -0.504178   -0.314691
C     -4.529045    0.129324    1.194076
C      6.250725   -0.927440   -3.022278
C     -1.784101    1.052271   -0.294428
C      5.016021   -0.659365   -2.331309
C      2.584128   -0.122325   -1.015460
C     -3.865561    1.316752    1.083672
C      4.904118   -0.769839   -0.947207
C     -6.255407    1.037952    2.541249
C     -5.711267   -0.034822    1.908847
C      0.260586   -0.290128   -0.520988
C     -0.883572    0.080644    0.388369
C      6.127205   -1.184388   -0.193041
Cl    -7.739626    0.928058    3.463214
F     -6.317085   -1.232231    1.982631
F      6.584101   -2.416554   -0.583202
F      5.787634   -1.229800    1.141363
F      7.083000   -0.199918   -0.354593
N      7.258476   -1.125901   -3.579087
N      1.406782    0.126970   -0.273335
O     -0.015599   -1.086436   -1.603158
O     -0.309720    0.770474    1.493986
O     -2.755236    1.571125    0.434671
H     -1.988043   -1.013506    1.879793
H     -0.598373   -1.846804    1.174801
H     -2.064022   -1.728751    0.163073
H      3.950318   -0.186183   -4.083740
H      1.782575    0.292851   -2.910499
H     -3.986573    3.363350    1.700871
H     -6.070714    3.126822    2.974352
H      3.666825   -0.602756    0.759017
H     -4.148761   -0.736203    0.689184
H     -1.080183    1.868918   -0.694361
H     -2.130236    0.545198   -1.263790
H      0.687110   -1.665750   -2.063317
H      0.240272    0.135282    1.982644
