43

C     -3.040676   -1.170742    0.991632
C     -3.390414   -1.123705   -1.323896
C      3.495409   -1.851624   -0.285535
C      2.712298   -2.071031    0.963896
C      3.081700   -0.657395   -1.104401
C     -1.859131    3.467844    0.871542
C     -1.607021    2.112736    0.878034
C     -0.983128    4.315555    0.230987
C      1.220697   -1.848441    0.792642
C      1.568778   -0.603656   -1.205644
C      0.350663    2.437779   -0.365482
C     -1.217249   -0.717268   -0.537031
C     -0.482044    1.556937    0.251087
C      0.125759    3.790044   -0.388358
C     -0.292016    0.105076    0.315175
C      1.091279   -0.411364    0.244402
Cl     1.263430    4.853142   -1.213658
N     -2.602296   -0.593308   -0.243314
O      2.030941    0.334073    0.947385
H     -3.660159   -2.089378    0.839932
H     -2.243251   -1.382569    1.721446
H     -3.732334   -0.426826    1.481730
H     -2.952646   -2.079623   -1.697453
H     -4.409072   -1.359694   -0.956315
H     -3.509717   -0.383431   -2.149679
H      4.563799   -1.671112    0.013653
H      3.541892   -2.760060   -0.938396
H      3.070336   -1.423602    1.793346
H      2.842889   -3.127366    1.277687
H      3.533874   -0.768034   -2.111806
H      3.466984    0.249547   -0.601661
H     -2.723316    3.907764    1.348862
H     -2.336957    1.511447    1.408157
H     -1.153737    5.400509    0.204752
H      0.861657   -2.526458    0.001961
H      0.744301   -1.957169    1.766378
H      1.167647    0.090095   -1.919005
H      1.209523   -1.626366   -1.522202
H      1.244943    2.073890   -0.850578
H     -1.042783   -0.540950   -1.621581
H     -0.948708   -1.794080   -0.316309
H     -0.649453   -0.161472    1.385010
H      1.647308    0.920285    1.622608
