30

C      1.070719   -0.217020   -0.223039
C      1.919283   -0.409221   -1.452845
C     -0.415605   -0.290574   -0.544350
C      3.371140   -0.315982   -0.975021
C     -1.254557   -0.103818    0.671013
C      3.592337    1.014619   -0.364806
C     -2.716991   -0.199863    0.314947
C     -0.907222   -1.064931    1.758259
C     -3.197295    0.785657   -0.648106
O      3.759047    2.053185   -1.070469
O      3.626284    1.180676    0.993115
O     -3.466871   -0.098747    1.511133
O     -0.463526   -0.655036    2.858875
O     -1.059474   -2.432704    1.593648
O     -2.789054    0.894611   -1.836700
O     -4.191153    1.689907   -0.234678
H      1.290450    0.797656    0.170662
H      1.305911   -1.006989    0.502289
H      1.774908   -1.362976   -1.961333
H      1.710914    0.415574   -2.192163
H     -0.660059   -1.225355   -1.068609
H     -0.640885    0.573180   -1.236689
H      3.523969   -1.129224   -0.255041
H      3.989106   -0.471915   -1.882583
H     -1.123298    0.933291    1.087835
H     -2.864180   -1.203447   -0.139109
H      4.253586    1.844475    1.464863
H     -3.611202    0.838213    1.756975
H     -1.105030   -3.107212    2.345900
H     -4.721256    2.216032   -0.943972
