52

C      4.968128   -0.748387    0.604499
C     -3.323749   -2.417154    0.420309
C     -3.118449   -1.183484    1.287888
C     -2.035274   -2.568591   -0.362091
C     -1.583855    3.517551    2.163155
C     -1.329202    2.200967    1.893581
C     -1.441770    4.475351    1.185124
C     -3.049634   -0.013074    0.342191
C     -1.722093   -1.359503   -1.194371
C      3.492546   -0.046913   -1.167457
C      3.121771   -2.106444   -0.080598
C      2.248093   -0.568029   -1.819834
C      1.799975   -1.490588    0.290849
C     -0.789368    2.777136   -0.330559
C      0.666213    0.412221   -0.462704
C     -0.930217    1.829213    0.641798
C     -1.044789    4.135607   -0.075944
C     -0.626481    0.390648    0.291127
C     -1.818558   -0.055332   -0.512984
Cl    -0.847486    5.328602   -1.345435
N      4.101908   -1.149496   -0.476816
N      1.175328   -0.875260   -0.874979
O     -2.037593    0.917765   -1.531337
H      4.818175   -1.350021    1.513781
H      4.810758    0.334320    0.801799
H      6.031589   -0.886147    0.285585
H     -3.392408   -3.282595    1.101817
H     -4.202910   -2.351811   -0.222759
H     -3.972232   -1.059682    2.002500
H     -2.183827   -1.367411    1.853432
H     -1.209601   -2.859728    0.290336
H     -2.203949   -3.425126   -1.074314
H     -1.912979    3.850856    3.167226
H     -1.442727    1.452325    2.647311
H     -1.645494    5.539716    1.384892
H     -3.153686    0.920785    0.934934
H     -3.968918   -0.053492   -0.286588
H     -2.535416   -1.354537   -1.997077
H     -0.803525   -1.571483   -1.761170
H      3.363339    0.840501   -0.541550
H      4.176900    0.259229   -1.996813
H      2.938686   -2.807531   -0.941357
H      3.536685   -2.715252    0.776607
H      2.500528   -1.473070   -2.402081
H      1.894797    0.208162   -2.545200
H      1.884358   -0.807821    1.134185
H      1.144088   -2.351076    0.604212
H     -0.480780    2.575224   -1.361071
H      1.489839    0.817058    0.217953
H      0.703113    1.085222   -1.333951
H     -0.535036   -0.219375    1.211112
H     -1.524813    0.649953   -2.349165
