25

C     -3.264430    0.699948   -0.399019
C     -1.435053   -1.424691    0.809070
C     -1.780865    0.781157   -0.335485
C      1.258793   -0.705847   -1.267880
C      0.967347    0.416519    0.774763
C      2.612187   -0.454809   -1.200238
C      2.305189    0.679378    0.867344
C     -1.077944   -0.538127   -0.333561
C      0.385277   -0.271970   -0.269491
C      3.144309    0.242246   -0.127301
O      4.501581    0.515777   -0.021380
H     -3.668643    1.624734    0.109208
H     -3.717470   -0.146338    0.121279
H     -3.661754    0.768697   -1.442143
H     -2.491527   -1.482339    1.055588
H     -0.885892   -1.097412    1.729302
H     -1.095225   -2.463669    0.574713
H     -1.476170    1.332667    0.575783
H     -1.429576    1.344501   -1.230161
H      0.889306   -1.245607   -2.110359
H      0.282145    0.760621    1.564497
H      3.278768   -0.790424   -1.970064
H      2.667730    1.227117    1.725649
H     -1.260221   -1.104053   -1.274111
H      4.952139    1.331927   -0.379715
