47

C     -3.960517   -1.610502   -2.012074
C     -1.734304    2.569848    0.713455
C      3.126300    1.778152    0.213573
C     -3.069001   -1.414113   -0.816272
C      1.681680   -2.651055    0.080912
C      0.283387   -3.267884    0.102885
C      1.589106   -1.437182   -0.809168
C     -0.159505    2.821002    2.634733
C      1.108690    2.774346    3.160499
C     -1.607288   -1.305146   -1.219272
C     -0.612923   -2.238021    0.753578
C     -0.369606    2.520376    1.284336
C      1.945687    2.142064    1.043563
C      0.508176   -0.479245   -0.353602
C      2.180142    2.433576    2.370624
C      0.688964    2.177290    0.477229
C      0.480621    0.628931   -1.316950
N      0.566218    1.858649   -0.904212
N     -0.733821   -1.120615   -0.133627
O      3.459734    2.393681    2.931741
O      0.366490    0.427390   -2.670998
H     -3.531989   -2.299296   -2.765894
H     -4.937205   -2.036252   -1.702193
H     -4.215887   -0.643813   -2.519828
H     -2.328736    3.345770    1.274699
H     -2.213932    1.589194    0.908624
H     -1.744579    2.840514   -0.366565
H      3.887829    2.588909    0.261126
H      3.533041    0.807792    0.586371
H      2.828100    1.631645   -0.847334
H     -3.265554   -2.206457   -0.096292
H     -3.382686   -0.445075   -0.340158
H      1.885893   -2.324096    1.116391
H      2.431259   -3.320662   -0.342168
H     -0.027727   -3.576231   -0.897702
H      0.311780   -4.166001    0.771428
H      1.345820   -1.746984   -1.837885
H      2.551487   -0.889386   -0.792741
H     -0.981956    3.093627    3.284617
H      1.271587    3.007751    4.207300
H     -1.560663   -0.545707   -2.020435
H     -1.379343   -2.297321   -1.711819
H     -0.090556   -1.927354    1.697567
H     -1.593595   -2.698764    0.962513
H      0.928336   -0.061558    0.629282
H      4.215364    2.136509    2.311170
H      0.325683    1.141705   -3.366267
