58

C     -1.607217    0.231800   -1.887323
C      3.326066   -0.557596   -0.533684
C     -2.226830   -0.309954    1.394754
C      2.040553   -1.041778   -0.510948
C     -0.746247   -0.703694    1.481613
C      3.622757    0.724457   -0.125941
C     -2.163153    0.813795    0.386234
C      1.400313    1.075366    0.332584
C      1.042945   -0.196168   -0.062304
C     -0.381247   -0.642963   -0.005634
N      2.652498    1.546749    0.310353
N     -1.185628    0.396426   -0.539833
C      0.578496    0.323961    0.296133
C     -0.571489   -0.476914   -0.290485
C      1.826679   -0.441594    0.011450
C     -1.804886    0.323281   -0.142642
O      0.591881    1.548447   -0.348253
O     -0.649454   -1.716249    0.304708
O      2.044043   -1.575104    0.482122
O      2.771235    0.132316   -0.803843
O     -1.815855    1.469084   -0.658403
O     -2.938003   -0.092736    0.515918
C      0.581674    0.727305   -0.365365
C     -0.600150    0.353325    0.529926
C      1.660092   -0.277376   -0.274296
C     -1.192574   -0.933238    0.106838
O      0.169909    0.934209   -1.675290
O     -1.508090    1.397946    0.489205
O      2.083615   -0.823467   -1.329827
O      2.163179   -0.577648    0.981198
O     -0.468031   -1.960481    0.100478
O     -2.511238   -1.091642   -0.290027
H     -2.637739   -0.154062   -2.005492
H     -0.884989   -0.420317   -2.415846
H     -1.577843    1.230745   -2.383690
H      4.124824   -1.208524   -0.883682
H     -2.596214    0.073225    2.359678
H     -2.837951   -1.148112    1.010033
H      1.786548   -2.044265   -0.826474
H     -0.663254   -1.709199    1.889789
H     -0.251516    0.087525    2.053235
H      4.625934    1.089729   -0.148130
H     -3.152098    1.036905   -0.057006
H     -1.786999    1.715558    0.931143
H      0.597388    1.740568    0.688295
H     -0.520903   -1.626217   -0.451724
H      0.429651    0.426346    1.382265
H     -0.419536   -0.638940   -1.377415
H      0.308452    2.278981    0.263452
H     -0.186517   -1.655539    1.180646
H      3.647542   -0.342644   -0.997809
H     -3.812239    0.437305    0.404371
H      0.988142    1.677366    0.042066
H     -0.185732    0.257210    1.554771
H      0.616843    1.708274   -2.086604
H     -1.505176    1.955905    1.305251
H      2.750797   -1.409515    1.037861
H     -3.043260   -1.938173   -0.126186
