66

C      8.349611   -0.718532    0.496487
C      6.567759   -1.959191    1.891250
C      3.492939    0.075382   -2.694077
C     -0.637208   -0.463951   -0.812018
C     -3.307954    2.094025   -1.284557
C     -8.265146    0.327532    0.729051
C     -5.888759   -2.128221    2.823750
C      6.359866   -0.113972   -1.464246
C      1.810913    1.168238   -0.720997
C      6.044981   -0.880400   -0.250375
C      5.567756    1.162066   -1.580164
C      3.265864    1.402571   -0.708688
C      1.319315    0.472304    0.529833
C     -1.049070    0.843510    1.158037
C     -2.457925    0.906723    1.292970
C      6.935465   -1.184371    0.686174
C      4.099205    0.907672   -1.618397
C     -0.181751    0.316210    0.342926
C     -3.752293    0.720585   -0.907678
C     -3.548920    0.372115    0.539183
C     -5.245086    0.650189   -1.135104
C     -3.991602   -1.060044    0.710134
C     -6.041327   -0.180852   -0.204682
C     -5.502151   -0.992716    0.672617
O     -5.728242    1.288709   -2.085197
O     -3.707599   -1.791108   -0.473578
O     -7.426364   -0.040456   -0.325424
O     -6.232604   -1.750719    1.521437
H      8.794817   -1.244483   -0.378402
H      8.347299    0.368575    0.408154
H      8.963369   -1.015166    1.371737
H      5.625539   -2.513565    1.681214
H      7.378165   -2.693775    2.162297
H      6.385702   -1.305300    2.771191
H      3.040829   -0.856337   -2.273734
H      4.272429   -0.224206   -3.431818
H      2.702030    0.602911   -3.249222
H      0.272605   -1.018108   -1.232960
H     -1.241705   -1.298136   -0.414448
H     -1.061072    0.122235   -1.621722
H     -3.849772    2.362497   -2.236720
H     -3.672947    2.806227   -0.520492
H     -2.243669    2.203209   -1.508380
H     -8.163193   -0.432749    1.531322
H     -9.302045    0.356867    0.335641
H     -7.991597    1.297325    1.192840
H     -4.949395   -2.716999    2.845981
H     -6.690492   -2.817184    3.204337
H     -5.834667   -1.248431    3.509451
H      6.271670   -0.731009   -2.386532
H      7.431372    0.180141   -1.404696
H      1.238422    2.140727   -0.780285
H      1.468584    0.584307   -1.593924
H      5.023865   -1.217326   -0.112368
H      5.825018    1.614945   -2.570812
H      5.859474    1.843413   -0.780833
H      3.674055    2.012704    0.088169
H      1.561117    1.116649    1.377544
H      1.767338   -0.543407    0.587574
H     -0.473480    1.416970    1.997165
H     -2.766908    2.037976    1.497339
H     -2.658204    0.553440    2.405550
H     -3.367576   -0.067373   -1.609817
H     -4.512038    0.933457    1.014634
H     -3.604967   -1.583904    1.566657
H     -4.369644   -2.519204   -0.570301
