66

C      8.035606    0.804211    0.367046
C      9.727057   -1.100932    0.158899
C      2.825289   -1.203986   -2.093091
C     -0.182911    2.367804    0.613601
C     -4.669485    2.869969    1.560526
C     -8.669222    0.139738   -0.553153
C     -5.361720   -3.062008   -0.972475
C      5.903402   -1.021179    0.257381
C      1.961128    0.267861    0.279686
C      7.302253   -1.518585    0.180083
C      5.174148   -1.411030   -0.984429
C      3.241095   -0.274273    0.030308
C      0.787565    0.245818   -0.569321
C     -1.397428    0.295756    0.476914
C     -2.534586    0.899990    1.219003
C      8.299483   -0.651141    0.232583
C      3.756907   -0.946970   -0.976293
C     -0.293728    0.955072    0.182661
C     -4.952444    1.489096    1.046506
C     -3.747428    0.884175    0.355016
C     -6.052510    1.548134    0.055725
C     -4.062207   -0.494539   -0.118608
C     -6.283926    0.318653   -0.720222
C     -5.361416   -0.622934   -0.798048
O     -6.776691    2.543257   -0.159526
O     -4.031887   -1.395934    0.962848
O     -7.502194    0.177037   -1.369216
O     -5.601154   -1.771525   -1.533678
H      8.976776    1.374062    0.363360
H      7.483652    1.027153    1.319002
H      7.441665    1.172613   -0.514997
H     10.194898   -0.762266   -0.788660
H     10.277806   -0.662999    1.023709
H      9.804016   -2.197258    0.253201
H      2.489230   -0.339285   -2.647887
H      2.069921   -1.980125   -1.854774
H      3.453364   -1.751913   -2.872473
H     -0.110149    2.496421    1.697189
H      0.727534    2.819240    0.163495
H     -1.034996    2.990249    0.231934
H     -3.969243    3.414664    0.912270
H     -5.647579    3.407068    1.613942
H     -4.273108    2.870571    2.596620
H     -8.704642    1.096044    0.000577
H     -8.593892   -0.687133    0.198578
H     -9.583148    0.016960   -1.180351
H     -5.616987   -3.829390   -1.723327
H     -5.968559   -3.220377   -0.058328
H     -4.293650   -3.197785   -0.700684
H      5.901368    0.106706    0.292162
H      5.477544   -1.420865    1.185564
H      1.620064   -0.141287    1.292514
H      2.110199    1.365706    0.562761
H      7.475121   -2.580955    0.082371
H      5.683034   -0.977923   -1.853451
H      5.208324   -2.536127   -1.063980
H      3.969589   -0.096660    0.861948
H      0.359849   -0.706607   -0.853001
H      0.911942    0.937788   -1.469581
H     -1.502067   -0.740720    0.180998
H     -2.293493    1.879495    1.648344
H     -2.714920    0.219800    2.101455
H     -5.204599    0.826222    1.913891
H     -3.552930    1.522458   -0.538600
H     -3.233189   -0.818590   -0.803598
H     -4.871742   -1.226489    1.473589
