55

C     -3.315977   -0.003569   -2.136745
C     -3.606253   -1.199567   -0.039923
C     -1.110480   -0.924387    1.721491
C      4.776886   -0.082958   -0.274017
C     -2.808917    1.497686    1.314381
C      0.574407   -1.457215   -1.345263
C     -0.933942   -1.413454   -1.246528
C      2.712204    1.188198    1.447232
C     -3.415040    1.218668   -0.041098
C     -1.321772    1.494564    1.170186
C      1.442044    0.441614    1.829329
C      2.650659   -1.250136   -0.088700
C      1.211903    1.263920   -0.354698
C      2.719313    1.211814   -0.065445
C      1.167424   -1.139087    0.002975
C     -1.406779   -0.130457   -0.636866
C     -2.891782   -0.053459   -0.660943
C     -0.789246    0.163522    0.705386
C      3.321938   -0.025203   -0.643583
C      0.694129    0.197170    0.543258
O      3.169819    0.007233   -2.028115
H     -4.335777    0.474688   -2.155786
H     -2.616101    0.666623   -2.670394
H     -3.382244   -1.008187   -2.557667
H     -4.678260   -1.153232   -0.396207
H     -3.699248   -1.119976    1.079670
H     -3.244983   -2.188446   -0.290213
H     -1.423907   -1.866167    1.238886
H     -1.835360   -0.575794    2.489508
H     -0.187112   -1.194973    2.314644
H      5.400046    0.070195   -1.181729
H      5.063432   -1.061385    0.171696
H      5.079628    0.705133    0.446144
H     -3.209505    0.880963    2.113068
H     -3.103637    2.560186    1.562423
H      0.848019   -2.507061   -1.577202
H      0.979272   -0.834830   -2.154323
H     -1.260574   -2.318571   -0.743100
H     -1.315359   -1.438710   -2.294050
H      2.605997    2.219220    1.841847
H      3.615419    0.734098    1.866333
H     -4.519969    1.054101    0.123938
H     -3.313236    2.062036   -0.718802
H     -1.084971    2.226048    0.342277
H     -0.877770    1.861866    2.094265
H      1.792224   -0.534517    2.260908
H      0.866221    0.936463    2.604159
H      3.146405   -1.539891    0.856858
H      2.878646   -2.088143   -0.807816
H      0.907141    2.292096   -0.077437
H      1.017995    1.071957   -1.431060
H      3.230516    2.099588   -0.476574
H      0.813001   -1.936813    0.700111
H     -1.031313    0.690816   -1.318943
H      4.034826   -0.244274   -2.427746
