77

C     -7.145307   -0.247628   -2.570190
C      2.822274    0.522543   -2.387025
C     -8.253407    0.623689   -2.049933
C     -8.533292    0.442046   -0.618124
C     -7.512814    0.735937    0.389791
C     -6.230945    0.005716    0.386875
C     -5.406030    0.518443    1.561297
C     -4.053754   -0.162639    1.656646
C     -4.136299   -1.618180    1.845370
C     -2.864142   -2.363220    1.957494
C     -1.920881   -2.470507    0.845700
C     -1.302137   -1.290101    0.218789
C     -0.537068   -0.373263    1.112347
C      0.629411   -1.027281    1.812907
C      1.347806   -0.044152    2.683955
C      1.899757    1.150791    1.939561
C      8.955631    0.486700   -0.385556
C      7.770190   -1.457718   -1.369397
C      7.857569    1.184651   -0.537980
C      6.700196   -0.726410   -1.502389
C      6.249587    1.562396   -2.302145
C      5.076340    2.332408   -1.735317
C      3.468081    1.808608    0.117389
C      8.990557   -0.906542   -0.797093
C      2.877841    0.642574    0.904795
C      6.611972    0.673723   -1.106463
C      4.439014    1.255695   -0.904543
O     10.035609   -1.603779   -0.661841
O      3.924632    0.014277    1.573636
O      3.931302    0.214834   -1.624484
O      5.544576    0.798173   -0.195928
H     -7.002914   -1.137749   -1.925824
H     -7.421892   -0.699050   -3.572803
H     -6.197105    0.291688   -2.759525
H      2.443819   -0.351583   -2.950952
H      3.182078    1.245761   -3.174741
H      1.995498    1.002679   -1.877993
H     -9.182048    0.293514   -2.612182
H     -8.140901    1.686280   -2.369006
H     -9.478978    1.032730   -0.381601
H     -8.919682   -0.626247   -0.503434
H     -8.010505    0.611002    1.404356
H     -7.322523    1.858552    0.380868
H     -5.608438    0.095851   -0.507811
H     -6.406497   -1.073074    0.571202
H     -5.215542    1.592472    1.367760
H     -6.010065    0.423544    2.467743
H     -3.601679    0.282582    2.605332
H     -3.384777    0.168699    0.866091
H     -4.678391   -2.057280    0.945687
H     -4.758846   -1.914628    2.734197
H     -3.114280   -3.445894    2.261120
H     -2.346896   -1.992346    2.914142
H     -2.467236   -3.018455    0.007455
H     -1.088584   -3.215203    1.097262
H     -0.457392   -1.745590   -0.453246
H     -1.949446   -0.718373   -0.459323
H     -1.183903    0.150412    1.811636
H     -0.084645    0.412242    0.438131
H      1.330302   -1.540389    1.147969
H      0.181856   -1.783205    2.509867
H      0.669939    0.280664    3.500999
H      2.170986   -0.603816    3.194222
H      1.089552    1.725046    1.452485
H      2.450872    1.755577    2.690940
H      9.867470    0.926817    0.050813
H      7.786580   -2.515111   -1.684383
H      7.873505    2.257806   -0.207178
H      5.807075   -1.217191   -1.947319
H      7.076152    2.187555   -2.632093
H      5.883884    0.941297   -3.155540
H      5.496117    3.087188   -1.025625
H      4.432271    2.768976   -2.492166
H      2.679904    2.437269   -0.340288
H      3.989096    2.441439    0.865205
H      2.314987   -0.043130    0.243966
H      4.074956   -0.914900    1.245444
