77

C      7.455247   -4.483912    1.295909
C     -6.683178   -4.161452    0.405620
C      1.907873    2.977516   -1.964870
C      8.102257   -3.163994    1.047274
C     -5.848698   -4.083204   -0.851391
C      7.609099   -2.402733   -0.122951
C      6.198844   -1.967573   -0.139872
C      5.141935   -3.006695   -0.074295
C      3.782872   -2.367457   -0.144872
C     -2.896805    1.293386    0.366924
C     -3.317120   -0.142199    0.727218
C     -2.353121    5.229123    0.210777
C     -5.398659   -2.674398   -1.136550
C     -2.076713    1.806794    1.480212
C     -2.662136    4.190697    1.273916
C     -4.168233   -0.710348   -0.406969
C     -2.066804    4.472302   -1.063423
C      3.622543   -1.072692   -0.249906
C      0.664116    2.404940    0.626888
C      0.686876    2.120538   -1.819497
C     -1.542669    3.184809    1.395311
C     -4.558510   -2.116113   -0.011910
C     -0.390000    3.451829    0.494706
C     -0.699438    3.846722   -0.910847
C      0.744692    1.415880   -0.489044
C      2.240930   -0.550716   -0.311442
N     -0.548704    2.827329   -1.900964
O     -5.342447   -2.086208    1.141520
O      1.237008   -1.294247   -0.267597
O      2.039857    0.812854   -0.422055
H      6.812326   -4.514956    2.213044
H      6.936213   -4.862972    0.394507
H      8.233110   -5.288092    1.500705
H     -5.999895   -4.320472    1.271069
H     -7.336380   -5.077186    0.392093
H     -7.351427   -3.301022    0.522397
H      1.937132    3.525162   -2.929928
H      2.786872    2.278175   -1.995556
H      2.087814    3.670162   -1.136602
H      9.212580   -3.362843    0.939382
H      8.039273   -2.521186    1.961540
H     -6.484276   -4.441737   -1.682293
H     -4.995610   -4.777985   -0.722465
H      8.236563   -1.459011   -0.237602
H      7.884062   -2.967022   -1.070211
H      6.035191   -1.219721    0.689260
H      6.055949   -1.376190   -1.096280
H      5.163418   -3.441981    0.962579
H      5.195712   -3.781548   -0.834340
H      2.914466   -3.003677   -0.107221
H     -3.839700    1.834433    0.185820
H     -2.290874    1.164187   -0.549403
H     -3.942887   -0.113401    1.638993
H     -2.459966   -0.787964    0.916890
H     -3.219789    5.895304    0.115515
H     -1.466508    5.842340    0.488185
H     -6.320280   -2.064703   -1.303815
H     -4.856393   -2.660854   -2.102311
H     -1.289562    1.065084    1.731046
H     -2.745022    1.788825    2.397777
H     -2.871972    4.751413    2.207133
H     -3.624465    3.713277    0.987924
H     -5.075872   -0.079552   -0.473861
H     -3.602991   -0.729397   -1.347108
H     -2.877175    3.728367   -1.197539
H     -2.108459    5.145056   -1.955087
H      4.465314   -0.404240   -0.291481
H      0.569491    1.871951    1.608530
H      1.694730    2.870292    0.697098
H      0.730582    1.353616   -2.622810
H     -1.141813    3.357662    2.453185
H     -3.686378   -2.751215    0.140633
H      0.086822    4.392986    0.939429
H      0.012907    4.662749   -1.250582
H      0.030491    0.599619   -0.437196
H     -0.636271    3.252328   -2.829047
H     -5.777968   -1.204840    1.268154
