65

C      3.980330    1.466275    1.065574
C      4.248858   -1.315507   -0.268247
C     -2.151379    2.963947   -0.210896
C      3.925538    1.183391   -0.393622
C     -3.199839   -2.314586    0.713815
C     -4.103162   -1.211230    0.973681
C     -2.483389   -2.387899   -0.391735
C     -4.598986   -1.321222    2.426018
C     -2.113526    0.011418   -1.090883
C      0.363479   -2.284448   -1.106997
C     -0.694758    1.137043    2.879156
C      3.447322   -0.168987   -0.784856
C     -0.876093    2.839774   -0.995611
C     -2.560887   -1.355444   -1.421955
C      0.484774    1.210684    1.927692
C      1.690482   -1.647811   -1.461481
C     -1.266210    0.687901   -2.141499
C     -0.507946   -2.460812   -2.269866
C      1.936355   -0.365805   -0.625735
C      0.294743    2.828817   -0.026922
C      0.971025   -0.178559    1.650086
N     -0.817723    1.846660   -1.987883
N      0.404721    2.086000    0.888939
N      1.499573   -0.660092    0.658195
O      1.815707   -1.377793   -2.808872
O     -0.966619   -0.003225   -3.340636
O     -0.119388   -3.266687   -3.170368
O      1.234637    3.835756   -0.379017
O      0.781489   -1.077870    2.728955
O     -1.722982   -1.835303   -2.494569
S     -3.400456   -0.589518    3.563031
S     -1.461023   -0.491054    2.745613
H      4.947655    1.936121    1.351246
H      3.762524    0.567485    1.678842
H      3.210466    2.222154    1.318287
H      4.526037   -2.060028   -1.044351
H      5.222940   -0.932077    0.143907
H      3.709395   -1.811452    0.565062
H     -2.055429    3.946610    0.346917
H     -2.242201    2.215601    0.563055
H     -3.016999    3.060130   -0.895287
H      4.937449    1.410274   -0.829728
H      3.263602    1.950584   -0.880452
H     -3.129562   -3.112530    1.488825
H     -5.007913   -1.312202    0.339867
H     -3.657708   -0.204227    0.933198
H     -1.840041   -3.290491   -0.449490
H     -4.671874   -2.401258    2.660899
H     -5.575325   -0.865576    2.566270
H     -1.553656    0.116920   -0.165024
H     -3.029859    0.679903   -1.106719
H      0.544492   -3.325048   -0.699367
H     -0.043935   -1.722407   -0.271964
H     -0.375524    1.217751    3.964227
H     -1.450173    1.896535    2.750679
H      3.577568   -0.210862   -1.917059
H     -0.874693    3.827255   -1.588661
H     -3.585371   -1.344644   -1.910103
H      1.306883    1.642868    2.630047
H      2.506427   -2.343277   -1.176739
H      1.455918    0.456896   -1.171200
H      1.820315   -0.411205   -2.968386
H     -0.244517    0.364682   -3.973523
H      2.169528    3.900746   -0.044634
H      1.358915   -1.849042    2.942253
