77

C     10.027493   -1.009166    1.098494
C     -4.871632    0.407880   -2.025657
C      8.814728   -0.392786    0.424383
C      8.675880    1.065503    0.771978
C      7.506420    1.729469    0.134031
C      6.234119    1.021831    0.596366
C      5.088265    1.737730   -0.068655
C      3.784910    1.127626    0.358194
C      3.708029   -0.308706   -0.024531
C      2.374019   -0.870967    0.408803
C      1.252935   -0.112091   -0.240357
C      1.365365   -0.214291   -1.732070
C      0.258742    0.529886   -2.393105
C     -1.114064   -0.019721   -1.955282
C     -1.299268   -1.420852   -2.280466
C     -2.498033   -2.213185   -1.984042
C     -7.508431    0.740266    3.520052
C     -7.011568    2.627824    1.972554
C     -6.911946   -0.061361    2.679057
C     -6.415451    1.798360    1.141408
C     -7.008769   -0.468472    0.325495
C     -5.966864   -1.540594    0.065793
C     -3.484508   -1.408468    0.280651
C     -7.589043    2.152158    3.201684
C     -2.977553   -2.405928   -0.618730
C     -6.291315    0.354773    1.389698
C     -4.717017   -0.638119    0.109369
O     -8.173000    2.912533    4.033212
O     -1.897333   -3.132228    0.042187
O     -4.919563    0.368652   -0.705649
O     -4.980436   -0.044556    1.436958
H     10.024582   -0.768629    2.175449
H     10.953143   -0.583971    0.661198
H      9.944891   -2.102514    0.987722
H     -5.130283    1.484224   -2.348145
H     -3.926967    0.223846   -2.536402
H     -5.685469   -0.168777   -2.554467
H      8.938120   -0.490755   -0.667480
H      7.943143   -0.991789    0.733529
H      8.515715    1.114463    1.888745
H      9.585411    1.630851    0.489869
H      7.500915    1.679030   -0.963514
H      7.450968    2.766455    0.510609
H      6.247845   -0.033953    0.226363
H      6.086133    1.085522    1.690281
H      5.172827    1.681897   -1.185127
H      5.109049    2.809020    0.247290
H      2.982411    1.748952   -0.097908
H      3.642819    1.230887    1.463345
H      4.534159   -0.876121    0.514851
H      3.825194   -0.471853   -1.101707
H      2.271632   -1.934018    0.065715
H      2.280158   -0.847056    1.517110
H      0.284368   -0.577720    0.117987
H      1.179791    0.935761    0.114596
H      1.368161   -1.264303   -2.072106
H      2.319619    0.298641   -2.084325
H      0.320211    0.543841   -3.489839
H      0.293451    1.586798   -2.004974
H     -1.810360    0.691937   -2.467942
H     -1.217829    0.195923   -0.884548
H     -0.381943   -2.058808   -1.966683
H     -1.168860   -1.500685   -3.428205
H     -2.237215   -3.267531   -2.441902
H     -3.384998   -1.972291   -2.652350
H     -7.922502    0.313461    4.429763
H     -7.064169    3.678212    1.722079
H     -6.841430   -1.135707    2.904355
H     -6.001174    2.208698    0.236470
H     -7.960560   -0.872758    0.669388
H     -7.146931    0.195945   -0.553943
H     -5.992330   -2.214678    0.946982
H     -6.078009   -2.037974   -0.895321
H     -2.668878   -0.669375    0.569314
H     -3.654009   -1.973956    1.306360
H     -3.724922   -3.309048   -0.709313
H     -2.230988   -3.371330    0.955009
