62

C      6.628173    1.961643   -0.206779
C     -4.045261    2.577303   -0.036931
C     -7.135382   -0.576173   -0.559015
C     -4.224712   -0.925335   -2.586739
C      7.409101    0.723500   -0.614186
C      7.054008   -0.393690    0.324963
C      5.560278   -0.726410    0.295734
C      5.114310   -1.146525   -1.046669
C      3.699910   -1.523404   -1.209460
C      2.593375   -0.591975   -1.042188
C     -0.714918   -1.084933    0.403742
C     -1.718460   -1.220223   -0.537699
C     -4.998521    1.130069    1.764279
C      2.343294    0.117262    0.230284
C     -6.252741    0.404247    1.372938
C     -1.896899    0.582086    1.534308
C     -0.742263   -0.208849    1.455731
C     -2.907738    0.462113    0.606332
C     -2.859640   -0.423328   -0.442407
C     -5.018256    0.396503   -0.531468
C      1.404061   -0.791523    2.329722
C     -4.215068    1.179091    0.472111
N      2.182832   -0.623962    1.393974
N     -5.912181   -0.450885    0.235141
N     -4.021132   -0.357793   -1.258772
O      1.711804   -1.725141    3.342179
O      0.257557   -0.076244    2.381736
H      6.817289    2.186425    0.852447
H      6.970081    2.794508   -0.872623
H      5.563004    1.800687   -0.445426
H     -3.636742    3.265041    0.730593
H     -5.056241    2.963233   -0.285502
H     -3.469305    2.564858   -0.964947
H     -7.622828   -1.534119   -0.290965
H     -6.914359   -0.517021   -1.649635
H     -7.829611    0.269192   -0.338209
H     -3.282797   -1.187581   -3.081520
H     -4.897227   -0.287706   -3.191297
H     -4.764750   -1.898399   -2.409055
H      7.262494    0.500141   -1.671193
H      8.500519    0.939175   -0.429099
H      7.362179   -0.084352    1.344227
H      7.655437   -1.276674    0.060731
H      5.011006    0.098172    0.697772
H      5.471424   -1.634390    0.967253
H      5.467123   -0.433505   -1.852997
H      5.723259   -2.082896   -1.295342
H      3.525351   -2.373052   -0.466547
H      3.612825   -1.981501   -2.250591
H      1.621495   -1.080603   -1.407688
H      2.718097    0.192242   -1.887463
H      0.161864   -1.730912    0.318658
H     -1.673308   -1.920765   -1.361887
H     -5.178348    2.173516    2.075565
H     -4.387116    0.570736    2.501522
H      3.076282    0.934330    0.370194
H      1.397576    0.752466   -0.000262
H     -6.704243   -0.178781    2.197158
H     -6.964964    1.164974    0.982610
H     -1.939213    1.280181    2.358113
H     -5.556645    1.024698   -1.252873
H      2.664864   -1.959741    3.590404
