58

C     -4.699971   -1.133094   -0.965990
C     -5.118441   -0.416577    1.317580
C     -4.630915    1.230683   -0.402360
C      5.898061    2.006801   -0.653385
C      4.743543    2.669470   -1.083832
C      0.916224   -3.225946   -0.818849
C      5.719209    0.901419    0.156505
C      2.156779   -2.980273   -0.291649
C      3.490248    2.236202   -0.714724
C      0.006888   -2.190138   -0.946947
C      4.503568   -0.763082    1.415938
C      3.925627   -1.865309    0.619373
C     -2.442694    0.726135    1.458826
C     -1.423320    1.760084    0.944849
C     -1.985583   -0.121549   -0.859114
C      0.903859    1.729356    0.208135
C      4.485717    0.459173    0.531217
C      2.548179   -1.698395    0.130674
C      3.344453    1.129617    0.094539
C      0.385796   -0.939695   -0.536120
C      1.978168    0.742141    0.438371
C     -0.568967    0.189733   -0.667912
C      1.650590   -0.662710    0.007250
C     -4.272545   -0.148434    0.100078
C     -2.795188   -0.279192    0.394369
N     -0.316779    1.012792    0.506127
O     -2.587994   -1.568175    0.876565
H     -4.146108   -1.045633   -1.903669
H     -4.707927   -2.168330   -0.540574
H     -5.786164   -0.912582   -1.154328
H     -5.311610    0.538180    1.885698
H     -4.724068   -1.216411    1.955657
H     -6.119911   -0.746855    0.967190
H     -4.244583    2.043078    0.223517
H     -5.756240    1.301343   -0.328057
H     -4.412169    1.356792   -1.488532
H      6.883051    2.352611   -0.947293
H      4.906881    3.530808   -1.715982
H      0.610416   -4.229778   -1.149211
H      6.601585    0.384044    0.493431
H      2.816568   -3.841151   -0.222006
H      2.634311    2.780365   -1.070776
H     -0.962113   -2.438732   -1.371055
H      3.825143   -0.527679    2.260210
H      5.519801   -1.001282    1.701102
H      3.933184   -2.791006    1.266277
H      4.635660   -2.082567   -0.229418
H     -1.921452    0.208249    2.293039
H     -3.303202    1.246052    1.879583
H     -1.128504    2.337920    1.843949
H     -1.876677    2.432655    0.199379
H     -2.145519   -0.949318   -1.552899
H     -2.461012    0.768566   -1.398359
H      0.774795    2.081915   -0.835071
H      1.037424    2.583071    0.876461
H      1.996744    0.627385    1.578217
H     -0.187072    0.787922   -1.549276
H     -2.795744   -2.210664    0.153494
