142

C     11.313551    0.285166   -0.303507
C     11.217706    2.750974   -0.486569
C     -5.005240   -0.842134   -4.341456
C     -6.944441    4.891944    1.844200
C      1.765233    0.632184   -2.479623
C      5.385490    0.949102    1.884479
C     -7.903860   -2.450799    2.924011
C      7.624271    0.038521   -2.339561
C      2.652890   -0.901733    2.745880
C      2.743979   -3.011330    1.682583
C     -3.160429   -3.003827    2.857138
C     -8.472976    2.082325   -0.472444
C     -7.935529    1.971612    0.676583
C     -8.261398    1.272941   -1.779321
C     -8.054792    2.692989    2.011575
C     -7.124237    1.168245   -2.357156
C     -3.701371   -2.773349   -1.846091
C     -2.531940   -2.997588   -2.671381
C     10.224190    1.601345    1.476395
C     -3.867366   -0.297461   -2.147767
C     -4.576548    0.818552    2.236389
C      5.347572   -0.506139   -1.693697
C     11.328882    1.570931    0.464080
C     -5.165229   -0.292462   -2.932643
C     -6.687051    3.423092    2.138816
C      1.200813   -0.470667   -1.566644
C      5.952960   -0.193078    1.103366
C     -7.000858   -1.676705    2.014497
C     -3.829444   -1.430095   -1.164920
C     -5.834992    1.058568   -2.998675
C     -4.855529   -0.495602    1.529714
C      8.912020    1.498213    0.848985
C     -4.746493    2.008138    1.399562
C      4.398563   -0.494775   -0.564108
C      1.435113   -1.332787    0.665390
C      0.189431   -0.442540    0.977835
C      2.155549   -0.559656   -0.391983
C     -2.940487   -1.259990    0.015979
C     -3.593114   -1.322499    1.349630
C      6.911023    0.339000    0.027974
C     -0.709987   -0.698637   -0.209519
C      6.780193   -0.506209   -1.179683
N      2.077073   -1.752800    1.809720
O     -1.681549   -2.157522   -2.876320
O     -7.468682   -1.434294    0.856584
O     -4.959482    1.919724   -2.256077
O      8.346429    2.571157    0.455358
O     -3.711522    2.289064    0.663426
O     -0.322096   -0.751894    2.204422
O      7.154962   -1.813507   -0.961260
O     -3.866025   -2.671588    1.690945
O     -5.781617    2.850921    1.269618
O      5.030427   -1.059265    0.570045
O     -0.077448   -0.099765   -1.284967
O     -5.774340   -1.240323    2.341041
O      8.189085    0.336068    0.624459
O      3.272901   -1.290737   -0.762513
O     -2.008154   -0.239777   -0.055180
C      1.921606    0.504046   -0.059628
C      1.217709   -0.706361   -0.564051
C     -0.143733   -1.042615   -0.374485
O     -0.822691    1.407317    1.025767
O     -2.190766    0.674518   -1.281997
O     -2.461231   -0.658522    0.920975
O      0.736363   -1.479946    0.614417
P     -1.420215    0.138460    0.130415
H     10.284502   -0.037056   -0.479174
H     11.798545   -0.517873    0.314683
H     11.904521    0.396389   -1.245972
H     11.578891    3.631646    0.066406
H     10.215932    2.875354   -0.885254
H     11.912960    2.599456   -1.350386
H     -4.756218   -0.009420   -5.020837
H     -4.295831   -1.652918   -4.331783
H     -6.016294   -1.249155   -4.629319
H     -6.814901    5.109369    0.777155
H     -8.012647    5.087701    2.087719
H     -6.339622    5.513822    2.509786
H      1.703348    1.561622   -1.856650
H      1.148780    0.775497   -3.363236
H      2.809908    0.422193   -2.680521
H      6.154042    1.784530    1.919184
H      4.464288    1.377741    1.492890
H      5.213671    0.671584    2.952532
H     -7.967435   -3.517261    2.587671
H     -7.450710   -2.472164    3.947148
H     -8.903307   -1.974836    2.908754
H      7.909308   -0.825396   -2.959753
H      7.010694    0.790239   -2.903089
H      8.511281    0.556604   -1.932081
H      2.676292    0.177949    2.486944
H      3.722962   -1.191928    2.943432
H      2.177449   -1.012107    3.777123
H      2.075529   -3.848140    2.063531
H      3.745539   -3.071851    2.139225
H      2.858079   -3.278350    0.583395
H     -3.339929   -4.032159    3.178637
H     -3.421464   -2.292678    3.662974
H     -2.079157   -2.803202    2.640690
H     -9.259799    2.863331   -0.770943
H     -7.140951    1.199944    1.026138
H     -9.264180    0.879465   -2.095364
H     -8.068387    1.923171    2.853489
H     -8.796024    3.394590    2.230306
H     -7.533767    0.303787   -3.366065
H     -3.655018   -3.528211   -0.994054
H     -4.636058   -3.038658   -2.396428
H     -2.380944   -3.962910   -3.151746
H     10.403664    0.754753    2.201158
H     10.305436    2.564999    2.036446
H     -3.066808   -0.345450   -2.934665
H     -3.678837    0.664568   -1.617372
H     -5.193868    0.912387    3.168069
H     -3.512893    0.816960    2.608736
H      5.168099   -1.431056   -2.301906
H      5.177833    0.385005   -2.384306
H     12.309724    1.648792    1.001059
H     -5.868898   -0.982081   -2.400433
H     -6.379451    3.341791    3.195852
H      1.266095   -1.402787   -2.156013
H      6.585897   -0.787049    1.821660
H     -4.898566   -1.502318   -0.722685
H     -5.724614    1.448992   -4.025688
H     -5.371157   -0.271889    0.594368
H      4.114709    0.536300   -0.258097
H      0.972568   -2.220555    0.102359
H      0.507400    0.633616    0.893866
H      2.395064    0.471533   -0.030319
H     -2.281764   -2.212725   -0.016899
H     -2.901988   -0.955117    2.127682
H      6.660884    1.396650   -0.208895
H     -0.701041   -1.822703   -0.332938
H     -5.487751    2.480312   -1.664583
H     -0.761197    0.072972    2.574000
H      7.161501   -2.324852   -1.818896
H      2.970514    0.177173    0.205162
H      1.464423    0.964278    0.835045
H      2.052807    1.284233   -0.840758
H      1.845028   -1.340495   -1.244681
H     -0.567427   -1.880133   -0.968439
H     -1.585984    1.806853    1.539795
H     -3.016404    0.151195   -1.459615
