38

C     -2.867346   -1.922838    1.504873
C      4.763789    2.204879   -1.109473
C     -3.968976    0.688129   -0.773118
C     -2.582981    0.376772   -1.306927
C     -4.176448   -0.215191    0.424699
C     -1.367945    0.512988    0.876547
C      1.637916   -0.959429    0.604250
C     -1.965933   -0.429077   -0.152315
C      1.848455    0.321357    0.163061
C      0.829036    1.356050    0.091873
C      3.138162    0.610678   -0.233925
C      3.869178   -1.565737    0.255168
N      4.795410   -2.475326    0.311011
N     -0.369056    1.328921    0.387715
N      2.628472   -1.887381    0.650285
N      4.132453   -0.325593   -0.186245
N     -3.099015   -1.147558    0.319933
O      1.263073    2.637446   -0.403432
O      3.454817    1.868180   -0.693415
H     -1.833754   -2.280692    1.598161
H     -3.512939   -2.841940    1.430779
H     -3.154500   -1.404249    2.441171
H      5.234774    2.922442   -0.396077
H      5.415609    1.302190   -1.192198
H      4.717573    2.701738   -2.120255
H     -4.733411    0.508878   -1.567689
H     -3.966536    1.761208   -0.466333
H     -1.997422    1.260446   -1.550056
H     -2.633974   -0.345388   -2.168565
H     -4.133069    0.400181    1.348037
H     -5.138567   -0.754031    0.305745
H     -1.105829   -0.059354    1.769325
H     -2.227990    1.181849    1.246476
H      0.673627   -1.253234    0.924695
H     -1.192137   -1.105654   -0.509481
H      4.590774   -3.426572    0.650250
H      2.453156   -2.862912    0.989913
H      0.581555    3.317822   -0.708573
