47

C     -3.688937    1.277824   -0.466667
C      0.794442   -3.917486   -0.403956
C     -2.404617   -0.074939    1.096797
C      2.750104    1.434078    1.271462
C      2.548089    2.793274    1.163504
C     -1.040040   -0.536346    1.555571
C      0.609935   -0.523177   -1.842929
C      0.607055   -2.034951   -1.807530
C      2.127860   -0.892818    0.813440
C      0.582744    2.399238   -0.155769
C     -1.386831    0.734006   -1.047466
C     -2.301492    1.045555    0.095950
C      1.890409    0.552088    0.680338
C      1.475867    3.287699    0.457795
C     -0.344448   -1.058788    0.321436
C      0.809163    1.063460   -0.031216
C      0.937701   -1.756689    0.557194
C     -0.114430    0.089279   -0.666003
N      1.222999   -2.568402   -0.610958
O      1.268077    4.658047    0.346257
Br     0.768817    0.000000    0.000000
H     -3.773021    0.779131   -1.469164
H     -4.474736    0.809884    0.162904
H     -3.862743    2.352412   -0.639258
H      1.200372   -4.585728   -1.191383
H      1.242769   -4.297595    0.557990
H     -0.303904   -4.010677   -0.279280
H     -2.903984   -0.940381    0.635906
H     -3.006718    0.317395    1.952825
H      3.622783    1.091287    1.847060
H      3.236587    3.498671    1.636854
H     -0.469446    0.281427    2.037849
H     -1.200546   -1.396470    2.227812
H      1.654271   -0.171802   -1.939603
H      0.081604   -0.226866   -2.769181
H     -0.405309   -2.453282   -1.991934
H      1.234057   -2.369067   -2.661051
H      2.983942   -1.132906    0.115299
H      2.568763   -1.072507    1.835624
H     -0.221857    2.880460   -0.680865
H     -1.927069   -0.012198   -1.721243
H     -1.271684    1.614240   -1.676438
H     -2.009035    1.971251    0.630055
H     -1.052808   -1.748751   -0.174922
H      0.815716   -2.439279    1.447537
H      1.898348    5.290397    0.779358
H     -0.768817    0.000000    0.000000
