47

C     -2.442703    3.232333   -0.270018
C     -1.370989   -3.522533    1.557015
C     -1.832705    1.270118   -1.552294
C      2.869895   -0.944070   -1.163650
C      3.619785    0.201830   -1.298999
C     -1.016776   -0.012649   -1.624330
C      0.051857   -0.174787    2.007781
C      0.040160   -1.648871    2.167780
C      0.882823   -2.162200   -0.431589
C      1.958558    1.446744   -0.215887
C     -0.784618    1.687172    0.705904
C     -1.316318    2.255398   -0.558362
C      1.636552   -0.885867   -0.538827
C      3.190987    1.423819   -0.832995
C     -1.029700   -0.558940   -0.244867
C      1.185510    0.331745   -0.062534
C     -0.565643   -1.990366   -0.126339
C     -0.146112    0.344540    0.603852
N     -0.791090   -2.302429    1.252384
O      3.963236    2.586869   -0.975966
Br     0.759940    0.000000    0.000000
H     -3.019427    2.777165    0.587512
H     -2.069589    4.211198    0.082815
H     -3.154208    3.309108   -1.113620
H     -2.496435   -3.419247    1.550193
H     -1.103191   -3.890564    2.565215
H     -1.145695   -4.281507    0.780213
H     -1.921897    1.709756   -2.551204
H     -2.860734    0.954473   -1.246005
H      3.255172   -1.903931   -1.553784
H      4.586811    0.143919   -1.791437
H     -1.545616   -0.672508   -2.352102
H     -0.002202    0.194620   -2.021807
H     -0.724220    0.265522    2.670959
H      1.033437    0.223110    2.384557
H     -0.316487   -1.879245    3.201758
H      1.109575   -2.014457    2.179583
H      1.051177   -2.706535   -1.408264
H      1.403554   -2.783210    0.324234
H      1.580356    2.403042    0.169008
H     -0.111675    2.375133    1.240532
H     -1.665357    1.553841    1.404137
H     -0.517627    2.848299   -1.052606
H     -2.064547   -0.517407    0.152502
H     -1.213259   -2.606889   -0.769053
H      3.809377    3.128457   -1.831397
H     -0.759940    0.000000    0.000000
