49

C      2.935982   -2.306586    0.570951
C     -2.252994    2.041399   -0.852147
C     -1.361993   -1.792989    1.309295
C      1.465400    2.917153   -1.834947
C     -2.748672   -0.345605   -0.782658
C     -1.679987   -1.054564   -1.539447
C      2.626652    3.538061   -2.314741
C      1.766779    0.136274    0.675192
C      3.220942    1.758830   -1.249552
C     -1.167311    0.965667    2.181430
C      1.486086   -2.329043    1.008736
C      1.842228    1.788683   -1.159296
C      0.906421   -0.958517    1.202566
C      0.754689   -3.089228   -0.034967
C     -3.180804    1.143278    1.164741
C     -2.278135    0.796521    0.054553
C     -0.461162   -0.825824    0.607614
C      0.986862    0.798200   -0.470409
C     -0.965140    0.594399    0.744915
C     -0.337950   -1.071221   -0.883150
O      0.658594   -4.324237    0.081744
O     -4.417206    1.038402    1.154475
O      3.615362    2.804167   -1.933673
O     -2.413833    1.600796    2.207708
O      0.215250   -2.370064   -1.091094
O     -0.057605    1.476017    0.158481
O      0.542286   -0.124600   -1.390371
H      3.067666   -1.998688   -0.479078
H      3.597568   -1.798884    1.286359
H      3.267440   -3.387602    0.587691
H     -3.147162    2.023876   -1.512044
H     -2.143696    2.969059   -0.263710
H     -1.387729    1.864075   -1.523363
H     -2.226154   -1.320740    1.829210
H     -0.831711   -2.348451    2.140506
H     -1.682570   -2.561044    0.586240
H      0.454232    3.261156   -1.968789
H     -3.446841    0.084187   -1.564868
H     -3.405437   -1.043458   -0.223505
H     -2.055060   -2.108989   -1.707337
H     -1.548046   -0.644488   -2.578927
H      2.579309    4.453211   -2.882819
H      2.771219   -0.167938    0.382175
H      1.875241    0.953918    1.441911
H      3.861151    1.004829   -0.828568
H     -0.331881    1.598544    2.559277
H     -1.216620    0.101186    2.874368
H      1.463449   -2.925505    1.943540
H      0.784893   -0.813623    2.315778
