36

C     -5.094750    1.291834    0.120923
C      5.871929    0.261420    0.488905
C      5.786042   -0.355978   -0.740476
C      4.685882    0.530486    1.147806
C      4.575340   -0.693852   -1.298879
C     -2.272418    1.144362    0.149794
C     -2.327954   -1.248258    0.197511
C     -0.902617    1.134005    0.125703
C     -0.958164   -1.255655    0.173231
C      2.076572    0.375580    1.138771
C     -4.470460   -0.063952    0.199029
C     -2.987211   -0.038462    0.185914
C      3.457969    0.195073    0.595765
C     -0.206152   -0.075910    0.136861
C      3.415979   -0.415127   -0.628610
C      1.994853   -0.616251   -0.951289
C     -4.903857   -0.956643   -0.942036
N      1.201411   -0.109777    0.104877
O      1.635664   -1.164054   -2.026814
O     -4.149559   -1.167308   -1.891415
O     -6.177020   -1.556156   -0.927658
Na     0.000000    0.000000    0.000000
H     -6.211008    1.142762    0.073877
H     -4.820779    1.849137    1.018551
H     -4.714564    1.767498   -0.823851
H      6.847497    0.537411    0.921196
H      6.722119   -0.559194   -1.239924
H      4.711105    1.012249    2.117033
H      4.571297   -1.176943   -2.271192
H     -2.857472    2.070426    0.136002
H     -2.839655   -2.214889    0.216687
H     -0.374789    2.081478    0.101377
H     -0.386401   -2.202376    0.178598
H      1.977502   -0.299663    2.021157
H      1.897655    1.412937    1.436261
H     -4.773985   -0.636211    1.113851
