36

C     -4.983824    0.011045    1.189930
C      5.814119    0.876103    0.004505
C      5.859519   -0.279401    0.756669
C      4.639235    1.426990   -0.455909
C      4.656338   -0.888026    1.044043
C     -2.384393    1.099542    0.072494
C     -2.214496   -1.265071   -0.333381
C     -0.996685    1.179135    0.144875
C     -0.826345   -1.158865   -0.256928
C      2.058151    1.173364   -0.510898
C     -4.444721   -0.174167   -0.252756
C     -2.986092   -0.120974   -0.165711
C      3.436568    0.782825   -0.145586
C     -0.220960    0.062377   -0.018354
C      3.436548   -0.368067    0.598650
C      2.044896   -0.765470    0.728363
C     -5.006169   -1.409936   -0.768138
N      1.210218    0.158262    0.055573
O      1.664315   -1.790798    1.357709
O     -5.142300   -1.600888   -2.014328
O     -5.414920   -2.417934    0.067842
Na     0.000000    0.000000    0.000000
H     -6.036710   -0.365155    1.207721
H     -5.040942    1.082937    1.429919
H     -4.346831   -0.506075    1.916917
H      6.756373    1.370243   -0.231766
H      6.792387   -0.704888    1.113051
H      4.623392    2.341718   -1.047975
H      4.630136   -1.800175    1.632321
H     -2.921727    2.021649    0.210210
H     -2.739155   -2.177042   -0.513431
H     -0.514552    2.147900    0.336288
H     -0.246797   -2.069624   -0.396224
H      1.918154    1.208467   -1.627547
H      1.787411    2.174316   -0.080651
H     -4.860141    0.745685   -0.769553
