48

C      2.937943    0.879115   -1.165592
C      3.707458    0.065723    1.015483
C     -1.112047    0.131244   -1.103322
C     -2.100981    0.981151   -1.602653
C     -2.516267   -0.585025    0.645539
C      1.142906   -1.150405    0.162704
C      2.584846    0.785636    0.274291
C     -1.293933   -0.649289    0.002146
C     -3.314273    1.032636   -0.948361
C     -3.506710    0.246090    0.171169
C     -0.281129   -1.559839    0.568523
N      1.314675    0.209102    0.562902
O     -4.331611    1.860333   -1.402505
O     -4.759889    0.330999    0.806735
O     -0.306290   -1.384387    1.966766
C      0.394244    0.522310    0.217372
C     -0.438903   -0.750705    0.103674
C      1.823985    0.216484    0.463669
C     -1.853868   -0.337495   -0.061643
O      0.230333    1.237583   -0.946370
O     -0.002028   -1.481326   -0.973390
O      2.238335   -0.419133    1.447932
O      2.761991    0.663187   -0.455115
O     -2.454119   -0.684728   -1.108835
O     -2.551099    0.401686    0.858354
H      3.483501    1.851299   -1.355517
H      3.688317    0.094951   -1.413202
H      2.101818    0.866227   -1.862392
H      4.598093    0.699866    0.922115
H      3.385214    0.006632    2.079917
H      3.846762   -0.957096    0.600904
H     -0.158618    0.091075   -1.617358
H     -1.932707    1.597265   -2.490003
H     -2.719408   -1.170552    1.514530
H      1.808489   -1.863734    0.656483
H      1.191916   -1.296990   -0.937698
H      2.578615    1.818919    0.707773
H     -0.477060   -2.621379    0.359961
H      1.201069    0.238379    1.612949
H     -5.214469    1.888161   -0.913008
H     -4.967178   -0.218352    1.633768
H     -0.579052   -2.217758    2.428583
H     -0.045521    1.123906    1.057298
H     -0.286886   -1.357469    1.025742
H      0.187525    2.214594   -0.822079
H     -0.230317   -2.436222   -0.849532
H      3.656278    0.188196   -0.599048
H     -3.429950    0.899135    0.641971
