36

C     -2.125870   -2.310045   -0.686906
C     -2.235951    2.596829   -1.277367
C      2.406799   -2.677112    0.361811
C      1.108746   -2.256949    0.058218
C      3.383909   -1.760264    0.767856
C      0.303929    1.959757    0.427911
C      2.852334    1.768031    1.123892
C     -1.509156   -0.577244    1.063936
C     -2.543686    0.225924   -1.092107
C      1.626416    1.299661    0.712992
C      0.785441   -0.917497    0.160401
C      3.069764   -0.424391    0.871843
C     -0.485106    1.116095   -0.551647
C      1.785520   -0.060375    0.563914
C     -1.761063   -0.903204   -0.403752
C     -0.501955   -0.335044   -0.107958
N      3.720215    0.712752    1.216734
N     -1.903551    1.418616   -0.511560
H     -1.624397   -2.693948   -1.602404
H     -2.012807   -2.966551    0.186190
H     -3.231636   -2.326464   -0.922968
H     -2.764389    2.330413   -2.235823
H     -2.975313    3.170927   -0.679323
H     -1.375881    3.257024   -1.451589
H      2.649078   -3.719688    0.279690
H      0.341986   -2.949344   -0.256647
H      4.392595   -2.070731    1.006238
H     -0.274692    2.129101    1.356027
H      0.448276    2.952180   -0.047503
H      3.103722    2.798454    1.341599
H     -1.966025    0.293554    1.528063
H     -1.297311   -1.404460    1.750524
H     -2.455668    0.190961   -2.175487
H     -3.574913    0.209868   -0.701508
H     -0.081244    1.204742   -1.571900
H      4.721884    0.718424    1.498610
