36

C     -1.873196   -2.601909   -0.105875
C     -2.800992    2.193081    0.711896
C      2.769837   -2.270433    0.311309
C      1.400895   -2.066888    0.141982
C      3.668355   -1.225809    0.291516
C      0.100478    1.960664   -0.426519
C      2.756268    2.219845   -0.186082
C     -1.181907   -0.629086   -1.542890
C     -2.683321   -0.202978    0.489655
C      1.549966    1.571120   -0.243253
C      0.907315   -0.770508   -0.055020
C      3.195854    0.060826    0.098216
C     -0.758800    0.960237    0.368220
C      1.852954    0.231883   -0.064472
C     -1.669182   -1.145292   -0.159913
C     -0.469324   -0.403288   -0.260091
N      3.751364    1.301536    0.020996
N     -2.149813    1.100834    0.059642
H     -2.984839   -2.800456   -0.131631
H     -1.448108   -3.164476   -0.933752
H     -1.561068   -2.979631    0.906205
H     -3.488598    2.669083   -0.047064
H     -2.112001    2.987612    1.060638
H     -3.444090    1.855028    1.542477
H      3.174626   -3.262564    0.464947
H      0.716246   -2.874500    0.158287
H      4.720222   -1.383881    0.421565
H     -0.136751    1.772687   -1.492842
H     -0.075554    2.995633   -0.099964
H      2.863324    3.290786   -0.292497
H     -0.731108   -1.373453   -2.215449
H     -1.803207    0.135260   -2.024476
H     -3.693187   -0.363714    0.105235
H     -2.598339   -0.271149    1.589735
H     -0.518544    0.976351    1.433987
H      4.754225    1.507550    0.105281
