24

C     -1.527516    0.637445    1.273152
C      3.357449    0.380051    0.172214
C      2.800239    0.662710   -1.057862
C      2.611709   -0.245213    1.125995
C      1.503325    0.310055   -1.302731
C      1.299246   -0.594960    0.859698
C     -0.665761   -0.714173   -0.586835
C     -3.045138   -0.349591   -0.389609
C     -1.678638    0.323282   -0.217397
C      0.721371   -0.322029   -0.363630
Br    -3.342742   -0.792002   -2.243008
H     -1.487980   -0.272904    1.873441
H     -0.613614    1.242605    1.409201
H     -2.382116    1.246395    1.624988
H      4.383474    0.662623    0.356666
H      3.410166    1.160280   -1.802163
H      3.045144   -0.464894    2.082287
H      1.032324    0.519005   -2.264777
H      0.758150   -1.089646    1.657909
H     -0.888780   -1.615373    0.042028
H     -0.779311   -1.030750   -1.643214
H     -3.816750    0.363133   -0.039740
H     -3.047877   -1.251272    0.249710
H     -1.646374    1.235221   -0.816324
