50

C     -2.893182    2.851586   -0.810302
C      4.325264    1.542009   -1.715178
C     -4.318264   -2.053614   -1.775584
C      1.138875    0.498350    2.091542
C     -0.429507    3.327012    1.514717
C      0.113991   -3.218795    2.368881
C      2.037259   -2.428752    0.550533
C     -2.235363    1.549540   -0.606000
C      4.168026    0.100697   -1.410145
C     -2.964312   -2.036743   -1.172691
C      3.000255   -1.846182   -0.372200
C      3.067697   -0.427745   -0.614978
C     -2.279218   -0.816666   -0.785649
C     -0.325655    0.289976    0.157658
C     -2.895749    0.401273   -0.977248
C     -0.977410    1.483452   -0.051280
C     -1.013551   -0.859470   -0.226003
C      2.116823    0.326959   -0.097690
C      0.983565   -0.132030    0.709341
C      0.872610   -1.607658    0.898692
O      5.043612   -0.691371   -1.872976
O     -2.352484   -3.141882   -0.975554
O      3.797347   -2.611899   -0.974563
O     -4.182049    0.479251   -1.543709
O      2.204365    1.690419   -0.346409
O     -0.366711    2.650043    0.298578
O      0.449486   -1.884778    2.203003
O     -0.213789   -1.941010    0.055774
H     -3.830706    2.951050   -0.227517
H     -2.220949    3.709995   -0.664186
H     -3.214743    2.905416   -1.890745
H      4.468642    2.074648   -0.744365
H      5.257989    1.725460   -2.281194
H      3.478170    1.970549   -2.277081
H     -4.386766   -1.507973   -2.731051
H     -5.041095   -1.624426   -1.053828
H     -4.623170   -3.123905   -1.978350
H      0.115592    0.598672    2.505791
H      1.702769    1.446654    2.056257
H      1.676210   -0.250918    2.715467
H      0.610315    3.566553    1.834835
H     -0.910407    2.755150    2.336747
H     -0.920152    4.340886    1.413418
H      0.921663   -3.921355    2.175667
H     -0.369932   -3.324313    3.358118
H     -0.697388   -3.435734    1.618654
H      1.740592   -3.441057    0.146014
H      2.594876   -2.682476    1.500254
H     -4.591833    1.394724   -1.663893
H      2.368392    2.380428    0.372232
