40

C     -4.962341    0.431864    0.466385
C     -4.721815    1.744388    0.089807
C     -3.936433   -0.473993    0.629574
C     -3.421447    2.161148   -0.129101
C      2.307069    1.200386    0.244520
C      3.777125    1.497735    0.296440
C      2.445391   -1.213231    0.757670
C     -1.555141   -1.025090    0.587160
C     -0.979937    1.608847   -0.178287
C     -2.644513   -0.053775    0.410433
C     -2.405140    1.247071    0.037083
C      1.811624    0.101604    1.092364
C      1.972319   -1.579292   -0.645563
C      0.472684   -1.679240   -0.535687
C     -0.202441   -0.530418    0.117410
O      4.612301    0.482204   -0.103592
O      2.462608   -2.858545   -0.941313
O     -0.126356   -1.956311   -1.759303
O     -0.404347    0.489502   -0.824182
O      0.436020    0.028699    1.193136
H     -6.010637    0.156098    0.626462
H     -5.533892    2.445791   -0.035099
H     -4.147157   -1.499732    0.925717
H     -3.199736    3.197184   -0.428938
H      2.082503    1.050586   -0.856993
H      1.796687    2.181296    0.448383
H      4.033646    2.397247   -0.328208
H      4.089656    1.783752    1.338381
H      1.989705   -2.004376    1.427166
H      3.523660   -1.184831    0.861462
H     -1.858589   -1.957217    0.050839
H     -1.528932   -1.304805    1.664958
H     -0.511218    1.661571    0.817860
H     -0.832586    2.513523   -0.764006
H      2.160971    0.334605    2.146279
H      2.249699   -0.851562   -1.410609
H      0.274473   -2.589136    0.104937
H      5.365497    0.321709    0.515669
H      1.866652   -3.551387   -0.559634
H     -0.747633   -2.723868   -1.725484
