50

C     -3.427160   -2.299512    0.664120
C      4.668014   -2.212228   -0.285725
C     -4.296940    1.939306   -2.178050
C      0.524906    1.537925    2.192933
C     -0.174745   -3.028061    0.983874
C      2.077717    3.440161   -0.832575
C      1.513311    0.690001   -1.342502
C     -2.631374   -1.105514    0.352717
C      3.647940   -1.795564    0.700644
C     -2.935694    2.076821   -1.617638
C      2.672494   -0.127643   -0.918169
C      2.654044   -0.766488    0.384977
C     -2.422454    1.013213   -0.765852
C     -0.589155    0.129235    0.605824
C     -3.155270   -0.108276   -0.466242
C     -1.368233   -0.977235    0.873349
C     -1.154691    1.106272   -0.222866
C      1.754723   -0.411671    1.279285
C      0.761011    0.589506    1.016353
C      1.087736    1.502452   -0.173589
O      3.642404   -2.339880    1.825784
O     -2.238958    3.103481   -1.879894
O      3.689334   -0.296582   -1.647676
O     -4.432676   -0.277139   -0.969748
O      1.795708   -1.044843    2.513350
O     -0.859843   -1.973143    1.682449
O      1.970473    2.476189    0.150212
O     -0.201981    2.137889   -0.372129
H     -3.061514   -2.875448    1.512555
H     -4.453330   -1.938791    0.948731
H     -3.530031   -2.991868   -0.195070
H      5.395118   -1.408499   -0.498531
H      5.251938   -3.087649    0.061951
H      4.166208   -2.544555   -1.228439
H     -4.429216    1.056889   -2.836785
H     -4.530878    2.884211   -2.732892
H     -5.066104    1.889664   -1.380941
H     -0.278222    2.233726    1.855186
H      0.150054    1.010656    3.076692
H      1.440640    2.119639    2.405013
H      0.327992   -2.632661    0.077156
H      0.588007   -3.489570    1.617100
H     -0.939667   -3.767315    0.615980
H      2.793267    4.255453   -0.530515
H      1.113880    3.888645   -1.131439
H      2.547157    3.062277   -1.788595
H      0.700590   -0.046096   -1.649569
H      1.810037    1.311542   -2.187737
H     -5.020073   -1.055192   -0.799217
H      2.453505   -0.853730    3.236147
