37

C     -3.313132    1.114844    0.471291
C     -1.277205    1.804339   -0.485680
C     -0.012546    1.975222    0.281952
C     -1.489684   -1.251042   -1.404785
C     -0.226763   -2.047529   -1.102006
C     -0.532013    0.051963    1.798669
C      2.013837    0.125951   -1.028515
C      1.522987   -1.547519    0.782050
C     -2.152689    0.725243   -0.048997
C      0.499056    0.785465    0.988702
C     -1.985563   -0.746295   -0.078354
C     -0.962045   -1.113519    0.959635
C      3.412864    0.297639   -0.565863
C      0.250513   -1.398908    0.133029
C      1.132311   -0.246211    0.096474
O      3.682214    0.120991    0.648934
O      4.462646    0.647074   -1.402964
H     -4.063303    0.417576    0.838154
H     -3.590265    2.173580    0.564502
H     -1.051218    1.630685   -1.579839
H     -1.811935    2.787192   -0.475371
H     -0.131077    2.806588    1.037603
H      0.767957    2.343030   -0.416142
H     -2.236285   -1.911984   -1.896393
H     -1.268659   -0.366741   -2.031982
H     -0.581307   -3.085349   -0.854180
H      0.478278   -2.044934   -1.943650
H     -0.058121   -0.381906    2.726314
H     -1.344448    0.739825    2.068615
H      1.665336    0.979267   -1.637865
H      2.040699   -0.747812   -1.745076
H      2.291352   -2.190282    0.326833
H      1.533581   -1.521226    1.910283
H      1.287133    1.115917    1.706629
H     -2.920732   -1.278651    0.168569
H     -1.223170   -2.004088    1.544074
H      5.191399    1.241605   -0.999083
