38

C      2.949530   -1.856125    0.738165
C     -0.430797    1.469895    1.970037
C     -1.313887   -1.827371   -1.523322
C     -2.445402   -1.262430    0.581672
C      1.723089    0.185169   -0.051759
C      4.107191    0.184634    0.197922
C      0.556950   -0.455451    0.033846
C      4.295918    1.547589   -0.224045
C     -2.301658    1.790622    0.480068
C     -2.842132    0.134045   -1.401501
C      2.966674   -0.446695    0.283179
C     -1.148360    1.181610    0.709745
C     -2.978082    1.479681   -0.773483
C     -1.816916   -0.689855   -0.654903
C     -0.666450    0.253132   -0.323841
O      3.448874    2.382853   -0.583374
O     -3.692872    2.356103   -1.345007
O     -0.468676    1.022251   -1.494292
H      3.933534   -2.190728    1.124452
H      2.163438   -2.035439    1.514572
H      2.699535   -2.544165   -0.107132
H      0.183644    0.603677    2.309980
H      0.221552    2.329810    1.820542
H     -1.135181    1.677499    2.808275
H     -2.155602   -2.252234   -2.093016
H     -0.454813   -1.523600   -2.146734
H     -0.936744   -2.661068   -0.863457
H     -3.255888   -0.617288    0.941041
H     -2.912659   -2.241555    0.277177
H     -1.703183   -1.524445    1.363446
H      1.682916    1.202675   -0.385757
H      5.040321   -0.366383    0.474139
H      0.558522   -1.468696    0.362432
H      5.327448    1.928950   -0.239699
H     -2.742538    2.490568    1.174201
H     -3.849249   -0.340534   -1.322694
H     -2.508750    0.192622   -2.456609
H     -0.099294    1.890678   -1.174266
