40

C     -3.887909    0.962863   -0.600235
C      5.023343    0.614346    0.067709
C     -1.788549    2.010655   -0.392720
C     -0.363525    1.687537   -0.654254
C     -2.436101   -1.642634   -0.438812
C     -0.988073   -2.020617   -0.696968
C     -0.504527    0.688570    1.610150
C      1.642772   -0.362893   -1.357830
C      1.094682   -1.524860    0.809506
C     -2.652712    0.837969   -0.154167
C      0.373468    0.984844    0.447058
C     -2.439678   -0.488210    0.502650
C     -1.168632   -0.594516    1.243954
C      3.083982   -0.473143   -0.964666
C     -0.218024   -1.240846    0.270184
C      0.878786   -0.317583   -0.059372
O      3.747850   -1.513850   -1.172119
O      3.663303    0.620479   -0.358664
H     -4.652536    0.197950   -0.508655
H     -4.178603    1.873275   -1.089184
H      5.437780   -0.404261   -0.009780
H      5.561314    1.370152   -0.527149
H      5.028810    0.976439    1.134683
H     -2.159238    2.496123   -1.343911
H     -1.936092    2.816132    0.364664
H     -0.331393    1.153405   -1.638515
H      0.154065    2.666427   -0.833900
H     -2.974791   -1.369130   -1.360896
H     -2.928086   -2.499111    0.095407
H     -0.819424   -3.108121   -0.640370
H     -0.772452   -1.690217   -1.745252
H      0.064918    0.496716    2.560121
H     -1.240312    1.470307    1.861725
H      1.569318    0.552061   -1.966923
H      1.407047   -1.263430   -1.935245
H      1.696832   -2.350408    0.443283
H      1.326734   -1.293176    1.892760
H      1.247735    1.574843    0.804813
H     -3.274748   -0.606299    1.252779
H     -1.287336   -1.287787    2.094643
