71

C     -9.747469   -0.571498    1.486724
C     -9.254895   -1.697410   -0.794442
C     -4.748093   -0.936288    0.350024
C     -0.460855    3.145507   -1.224917
C      4.020200    1.702123   -1.541327
C      8.082996   -3.217887    1.044421
C     -7.268325    0.685386    1.390446
C     -2.579667    0.765397    0.960683
C      1.054731    0.849524   -1.273232
C     -7.672339   -0.188804    0.305527
C     -6.102938    0.239884    2.211702
C     -3.850196    0.885624    1.686349
C     -2.218126    2.060873    0.253205
C     -0.210346    0.860104   -0.508295
C      2.149047    0.543266   -0.253628
C      4.183011   -0.621957   -0.789230
C      5.506724   -0.860199   -1.311972
C      7.161611   -0.940648    1.058792
C      7.845676   -0.483057   -1.767588
C     -8.856900   -0.809033    0.319214
C     -4.885885    0.079754    1.400064
C     -0.941732    1.952808   -0.479301
C      3.504170    0.490384   -0.870804
C      7.841790   -1.892135    0.418315
C      6.594057    0.112305   -1.071687
C      8.332768   -1.583272   -0.924106
C      6.974747    0.346501    0.351764
O      9.251367   -2.332014   -1.384421
O      6.125558    1.200336    1.046995
H    -10.659657   -1.199015    1.400533
H    -10.008905    0.509816    1.484040
H     -9.204262   -0.797385    2.413055
H    -10.138540   -2.290228   -0.547537
H     -8.447066   -2.376462   -1.121697
H     -9.525688   -1.022652   -1.652898
H     -3.808041   -1.557832    0.550912
H     -5.544832   -1.734390    0.434697
H     -4.734028   -0.591253   -0.676012
H      0.524351    3.513969   -0.857837
H     -0.421422    2.936658   -2.317831
H     -1.165546    4.007030   -1.129606
H      3.128094    2.350198   -1.810448
H      4.465888    1.490825   -2.541436
H      4.644642    2.356844   -0.916376
H      7.391965   -3.372056    1.894885
H      9.138457   -3.197424    1.431482
H      7.973614   -4.040184    0.304320
H     -8.101786    0.898081    2.117061
H     -7.077367    1.707983    0.935690
H     -2.511880   -0.098753    0.312313
H     -1.776959    0.632031    1.744988
H      1.183716    1.818536   -1.765737
H      1.017854    0.058127   -2.057022
H     -7.058291   -0.348183   -0.552560
H     -6.372459   -0.769691    2.654408
H     -5.888845    0.953102    3.049748
H     -3.950584    1.644952    2.471618
H     -3.073992    2.307216   -0.407486
H     -2.114965    2.898979    0.971737
H     -0.502296   -0.037558    0.011103
H      2.069246    1.298879    0.534393
H      1.894063   -0.435558    0.180146
H      3.698798   -1.477582   -0.265518
H      5.441771   -0.962812   -2.453763
H      5.914991   -1.876070   -1.032081
H      6.766482   -1.114034    2.056189
H      8.608638    0.310794   -1.876510
H      7.503133   -0.845613   -2.746247
H      6.481805    1.112328   -1.543820
H      8.007155    0.810283    0.320541
H      6.402061    2.135738    0.909287
