40

C     -2.953367    1.600882    1.473846
C      3.365447    1.470847   -3.054062
C     -2.826231   -0.614997    0.697293
C     -1.961929   -1.314978   -0.337946
C     -0.110415    1.809542    0.942778
C      1.260006    1.192658    0.609256
C     -0.564757   -1.724010    1.644467
C      0.604101   -0.848029   -1.829551
C      1.828956   -1.367693    0.365115
C     -2.178970    0.540221    1.315399
C     -0.660662   -1.807902    0.134549
C     -0.799700    0.792600    1.825859
C      0.048824   -0.404366    1.908430
C      1.370872    0.250792   -2.391811
C      0.975143   -0.238881    0.715383
C      0.574108   -1.077628   -0.383878
O      0.728183    1.238223   -2.842637
O      2.744089    0.334472   -2.485358
H     -3.976013    1.562294    1.153174
H     -2.628092    2.544566    1.917667
H      3.022984    2.417275   -2.594584
H      3.124444    1.547694   -4.143245
H      4.456651    1.444339   -2.943305
H     -3.723781   -0.239016    0.112585
H     -3.280630   -1.312749    1.423989
H     -2.004054   -0.697272   -1.231689
H     -2.585266   -2.226254   -0.612908
H     -0.014121    2.790339    1.418242
H     -0.689472    1.942054    0.012551
H      1.602624    1.597382   -0.343574
H      1.999755    1.565183    1.377247
H      0.123013   -2.525526    2.015190
H     -1.522705   -1.922213    2.142165
H      1.087341   -1.795664   -2.278403
H     -0.398557   -0.840004   -2.269049
H      1.843931   -2.227977    1.057239
H      2.823043   -1.132256   -0.047510
H     -0.499004   -2.883462   -0.133911
H     -0.883743    1.252595    2.836287
H      0.677954   -0.489574    2.824709
