43

C     -2.726752    2.288648    2.081471
C     -1.373318    2.570976    1.960120
C     -3.002768   -1.014740   -1.168816
C     -3.277320    1.182333    1.516503
C     -3.284887   -0.843887    0.276461
C     -0.563258    1.715939    1.252781
C      3.066570    0.813929   -1.389599
C      3.176210    2.245873   -0.971235
C     -1.599448   -1.452234   -1.482114
C      2.133675   -1.350578   -0.902548
C     -2.470141    0.296623    0.790833
C      2.182821    0.082837   -0.388048
C     -1.131538    0.592544    0.680571
C      1.483528   -2.139982    0.212323
C      0.383853   -1.315423    0.867351
C     -0.124335   -0.245806   -0.061891
O      1.916020    2.833209   -0.962514
O      2.457412   -2.366761    1.179707
O     -0.544897   -2.209611    1.320301
O     -0.614897   -0.617123   -1.234920
O      0.944930    0.604454   -0.336980
H     -3.371628    2.975973    2.648533
H     -1.003415    3.473826    2.438731
H     -3.704671   -1.742632   -1.650838
H     -3.175299   -0.048792   -1.678032
H     -4.332146    0.921196    1.585723
H     -4.376422   -0.551809    0.347340
H     -3.208082   -1.749988    0.887369
H      0.488275    1.890140    1.137495
H      4.088277    0.389855   -1.415678
H      2.646984    0.742070   -2.402624
H      3.655640    2.367931    0.018031
H      3.843196    2.753894   -1.704904
H     -1.612582   -1.631153   -2.592810
H     -1.502097   -2.501605   -1.075724
H      3.177913   -1.668260   -1.094401
H      1.509997   -1.366532   -1.808553
H      2.697857   -0.001699    0.599613
H      1.132727   -3.104465   -0.154703
H      0.825193   -0.796184    1.740633
H      2.019347    3.758104   -1.330824
H      3.312934   -2.683156    0.770913
H     -0.143458   -3.097932    1.494951
