37

C      4.617967    0.964735    0.868885
C      4.429802    0.193502    2.014489
C      3.520631    1.153484    0.074011
C      3.206944   -0.356678    2.341875
C     -2.764157    1.569103   -0.600106
C     -3.967980    1.196449    0.199486
C     -2.147040   -0.788242   -1.211261
C      1.006192    0.686942   -0.313210
C      2.298952    0.606968    0.396083
C     -1.701174    0.513778   -0.629803
C     -0.878175   -1.576027   -1.556031
C      2.112991   -0.150750    1.521120
C      0.013247   -1.612671   -0.359202
C      0.114903   -0.316742    0.377385
O     -3.684449    0.936975    1.531736
O     -1.192510   -2.866587   -1.960304
O      1.304825   -2.013653   -0.700291
O     -1.122563    0.285707    0.603357
O      0.797953   -0.576692    1.608838
H      5.584855    1.380386    0.640921
H      5.285165    0.033832    2.654094
H      3.631786    1.746223   -0.821520
H      3.160676   -0.937198    3.247117
H     -2.328319    2.483054   -0.180126
H     -3.091180    1.786001   -1.633954
H     -4.665438    2.059738    0.182685
H     -4.542562    0.350707   -0.268431
H     -2.644561   -1.388507   -0.397691
H     -2.814340   -0.699491   -2.068554
H      1.163430    0.482272   -1.376041
H      0.606664    1.725000   -0.141517
H     -0.882074    0.904351   -1.294405
H     -0.372272   -1.007753   -2.363190
H     -0.407053   -2.372765    0.356793
H     -4.432811    1.205088    2.143051
H     -0.878651   -2.975170   -2.900444
H      1.660325   -2.625368    0.014155
