40

C      4.570597    1.780517    0.081416
C      3.622583    2.699930    0.495644
C      4.215851    0.440895   -0.096883
C      2.320990    2.302410    0.735793
C      2.435108   -1.312395   -0.008476
C     -2.856222    0.685681   -0.277197
C      1.173139   -1.227194   -0.809463
C     -2.605176    2.157103   -0.100571
C     -2.209320   -1.419930   -1.375028
C      2.930323    0.100556    0.150636
C     -1.901728    0.043696   -1.248086
C     -1.843765   -2.094735   -0.095066
C      1.946607    1.000896    0.569858
C     -0.740806   -1.460207    0.660992
C      0.067368   -0.458730   -0.104105
O     -3.529983    2.666167    0.810349
O     -2.989210   -2.120165    0.728253
O      0.118968   -2.513553    1.064609
O     -0.596015    0.272422   -1.026556
O      0.697837    0.486558    0.774035
H      5.587391    2.056108   -0.113085
H      3.920542    3.735416    0.627643
H      4.923847   -0.307671   -0.418512
H      1.573353    3.011735    1.059366
H      3.145310   -1.936701   -0.545363
H      2.311546   -1.706146    1.000969
H     -2.905088    0.215513    0.699316
H     -3.878905    0.591287   -0.732582
H      1.432244   -0.695105   -1.767052
H      0.843846   -2.245400   -1.092174
H     -1.601170    2.308038    0.366785
H     -2.642448    2.697054   -1.066194
H     -1.687019   -1.848945   -2.239442
H     -3.300706   -1.535344   -1.549245
H     -2.162363    0.490442   -2.256574
H     -1.659580   -3.181637   -0.343242
H     -1.045577   -0.985146    1.623605
H     -4.454386    2.531836    0.429836
H     -2.745037   -1.969719    1.679654
H     -0.482946   -3.255537    1.325739
