40

C      3.944654    1.391162    1.711565
C      4.361091    1.789092    0.442565
C      2.949653    0.441463    1.844504
C      3.802816    1.256720   -0.710703
C     -2.419446    1.153344    1.107299
C     -3.748119    1.759820    0.760067
C     -2.376230   -0.360665   -0.898478
C      1.325151   -1.109938    0.689394
C      2.113203   -0.354181   -1.688807
C      2.411385   -0.071845    0.701913
C      2.827139    0.325482   -0.570122
C     -1.655028    0.679040   -0.112528
C     -2.032140   -1.703853   -0.245395
C     -0.555414   -1.887071   -0.616719
C      0.251742   -0.665204   -0.309643
O     -3.602861    2.864592   -0.074722
O     -2.772272   -2.740034   -0.767199
O     -0.119184   -3.026937    0.037553
O      0.775553   -0.175646   -1.485344
O     -0.409399    0.352557    0.306135
H      4.378431    1.804825    2.608746
H      5.134778    2.527518    0.368838
H      2.586263    0.094269    2.813709
H      4.104605    1.545136   -1.707832
H     -2.476602    0.398598    1.899904
H     -1.796625    1.992819    1.537473
H     -4.455213    1.068945    0.296664
H     -4.189650    2.134740    1.707840
H     -1.957746   -0.363751   -1.927540
H     -3.445132   -0.190922   -0.949079
H      0.891913   -1.229048    1.695085
H      1.799093   -2.049733    0.376772
H      2.397644    0.171900   -2.609242
H      2.422710   -1.412451   -1.789979
H     -1.566259    1.588752   -0.777825
H     -2.078872   -1.622709    0.854224
H     -0.554403   -2.113348   -1.703020
H     -3.854197    2.607325   -0.996401
H     -2.993353   -3.351415   -0.016887
H      0.580321   -3.519343   -0.472344
