40

C     -4.480515    0.609997    0.581086
C     -4.095815   -0.537759   -0.081122
C     -3.540996    1.584056    0.846350
C     -2.795186   -0.765966   -0.499884
C      2.623731    0.336202    0.270838
C     -1.182007    2.425186    0.723827
C      3.861975   -0.195911    0.924052
C     -0.255383    2.474959   -0.432211
C      1.469586   -1.904131    0.460047
C     -2.231811    1.378948    0.437118
C      1.417419   -0.424483    0.759811
C     -1.870713    0.214621   -0.228334
C      0.371552   -2.218012   -0.527319
C      0.023823   -1.008735   -1.372441
C     -0.433054    0.150818   -0.598031
O      4.995977    0.516050    0.471089
O      0.889784   -3.185168   -1.406348
O     -0.764283   -1.486182   -2.389128
O     -0.166285    1.378803   -1.215831
O      0.234744    0.185039    0.610859
H     -5.518544    0.761472    0.899902
H     -4.856301   -1.298917   -0.282089
H     -3.771567    2.508413    1.361193
H     -2.529031   -1.678429   -1.010810
H      2.492735    1.381267    0.685017
H      2.720351    0.456342   -0.798327
H     -1.732930    3.380945    0.847176
H     -0.692430    2.227335    1.697391
H      4.071183   -1.246843    0.743330
H      3.803616    0.038610    2.021397
H     -0.593361    3.330731   -1.092769
H      0.740190    2.843158   -0.043931
H      1.230392   -2.537272    1.365596
H      2.449603   -2.262751    0.117299
H      1.586964   -0.400524    1.898758
H     -0.539068   -2.592478   -0.060001
H      1.004966   -0.758627   -1.893894
H      4.906834    1.480709    0.672017
H      1.537094   -2.809182   -2.032021
H     -0.383237   -2.352290   -2.677437
