43

C     -4.328530    2.220363   -0.252769
C     -3.365048    2.783749    0.567241
C     -4.202335    0.898844   -0.627742
C     -2.299741    2.005579    0.989534
C      2.732297    1.415166   -0.657091
C     -3.269844   -1.229856   -0.758409
C      4.117900    1.484035   -0.006057
C     -1.962906   -1.964026   -0.448002
C      2.782262   -0.968938   -0.150874
C     -0.935718    0.031736    1.192156
C     -3.131459    0.143971   -0.193778
C     -2.146912    0.683549    0.631664
C      1.993411    0.278966    0.063020
C      1.873765   -2.154984   -0.100532
C      0.607529   -1.858940    0.680848
C     -0.124134   -0.671173    0.133366
O      4.868811    2.513025   -0.615194
O      1.582266   -2.671043   -1.373944
O      0.945713   -1.767035    2.005452
O     -0.944899   -1.143050   -0.909311
O      0.719784    0.265044   -0.438360
H     -5.164035    2.837577   -0.581602
H     -3.481181    3.824460    0.851662
H     -4.975057    0.496818   -1.268178
H     -1.554255    2.452092    1.627679
H      2.227466    2.375636   -0.540686
H      2.872345    1.174357   -1.712335
H     -4.129862   -1.775097   -0.320200
H     -3.384783   -1.190206   -1.879483
H      4.671840    0.543160   -0.153730
H      4.063067    1.695548    1.066281
H     -1.952100   -2.049342    0.678098
H     -1.946373   -2.976414   -0.883663
H      3.244865   -0.935043   -1.158036
H      3.584276   -1.000410    0.614647
H     -0.306181    0.817080    1.657096
H     -1.253165   -0.654096    2.010779
H      2.026568    0.573171    1.147749
H      2.404567   -2.970230    0.438745
H     -0.042885   -2.757087    0.559181
H      5.679097    2.150378   -1.052649
H      1.190313   -1.983032   -1.962801
H      0.713259   -0.944305    2.460963
