43

C      4.799965    1.116549    0.013414
C      4.270096    1.421924    1.257788
C      4.094457    0.366376   -0.895615
C      3.014136    0.966075    1.590644
C      2.185393   -0.885801   -1.629897
C     -2.458573    1.772226   -0.018288
C      0.843029   -0.363447   -1.896404
C     -3.763864    1.884123    0.757518
C     -2.337775   -0.544097    0.661671
C      0.962429   -0.208581    1.180208
C      2.835826   -0.087403   -0.555299
C      2.320683    0.222816    0.684053
C     -2.338532    0.331476   -0.522740
C     -1.685488   -1.862200    0.519169
C     -0.688508   -1.868732   -0.589616
C     -0.183730   -0.470454   -0.832244
O     -3.928392    3.179583    1.243234
O     -2.656372   -2.865569    0.286713
O      0.307014   -2.798789   -0.392705
O      0.044596    0.250617    0.301652
O     -1.311686    0.189088   -1.405654
H      5.788380    1.451618   -0.301071
H      4.888329    2.013878    1.909245
H      4.465073    0.102273   -1.878028
H      2.593211    1.197282    2.553963
H      2.785184   -0.788354   -2.568903
H      2.259861   -1.936995   -1.334576
H     -2.549048    2.441886   -0.882354
H     -1.629927    2.042312    0.653506
H      0.431347   -0.879889   -2.810425
H      0.924533    0.705864   -2.195218
H     -4.634703    1.631198    0.142287
H     -3.758433    1.209419    1.654867
H     -3.411047   -0.728114    0.966009
H     -1.904902   -0.017765    1.560965
H      0.817595    0.273262    2.157783
H      1.037499   -1.319845    1.263108
H     -3.295820    0.160495   -1.099550
H     -1.186778   -2.189970    1.478426
H     -1.242583   -2.194514   -1.520476
H     -4.135666    3.787253    0.489296
H     -2.966800   -3.264192    1.141742
H      0.399992   -3.442879   -1.138197
