43

C     -3.078510    2.751224    0.664577
C     -1.746837    2.970766    0.387947
C     -2.678323   -2.063834    0.049733
C     -3.543505    1.459089    0.673722
C     -3.413494   -0.843328    0.481866
C     -0.899491    1.915842    0.125943
C      2.996619   -0.428792    1.486468
C      3.578504    0.939241    1.582063
C     -1.347970   -2.051503    0.781679
C      2.511022   -0.353781   -0.967910
C     -2.672281    0.404117    0.406478
C      1.988328   -0.615953    0.408409
C     -1.342554    0.596352    0.128211
C      1.430940   -0.795152   -1.938817
C      0.207263    0.035757   -1.623067
C     -0.215635   -0.271417   -0.181829
O      4.240433    1.376355    0.462289
O      1.781181   -0.581076   -3.253464
O     -0.820407   -0.433883   -2.440399
O     -0.407633   -1.605210   -0.119944
O      0.871053    0.172819    0.607827
H     -3.747354    3.587635    0.871631
H     -1.367783    3.994279    0.378380
H     -2.559071   -2.037530   -1.052429
H     -3.277228   -2.958485    0.320633
H     -4.576929    1.267146    0.886859
H     -3.748971   -0.971251    1.553406
H     -4.363337   -0.753567   -0.122000
H      0.151571    2.166212   -0.085644
H      2.604258   -0.702051    2.485054
H      3.856968   -1.135754    1.317145
H      4.327500    0.918648    2.417500
H      2.792876    1.677822    1.914884
H     -1.393201   -1.475032    1.717838
H     -1.121547   -3.101229    1.052054
H      2.711724    0.724806   -1.169750
H      3.453123   -0.919975   -1.145832
H      1.635030   -1.675136    0.426096
H      1.173149   -1.849025   -1.714644
H      0.353792    1.100776   -1.805284
H      3.997937    2.282882    0.161594
H      2.375059   -1.288684   -3.627707
H     -0.716267   -1.430119   -2.501566
