38

C      3.924592   -0.074362    0.822861
C     -1.125712    2.511567   -0.953985
C     -0.450737   -1.693118    1.550028
C     -2.285285   -0.131470    1.201823
C      1.845337    1.431238    0.242579
C      0.497431    1.040782    0.814841
C     -2.043621    0.435020   -1.699407
C     -1.713450   -1.775902   -0.513508
C      0.712959   -0.445014   -1.114590
C      2.630390    0.141494    0.183228
C     -1.152220    1.055825   -0.942531
C     -2.113465   -1.021280   -1.725035
C      2.027703   -0.816354   -0.523611
C     -1.130867   -0.838369    0.544777
C     -0.245340    0.167380   -0.138683
Cl     2.765374   -2.389019   -0.721852
O     -2.502404   -1.633527   -2.745366
H      4.503706    0.872275    0.934491
H      3.790844   -0.602040    1.767659
H      4.548952   -0.704561    0.124586
H     -0.248482    3.004277   -0.553804
H     -2.025288    2.967694   -0.448972
H     -1.236135    2.839045   -2.029780
H      0.388426   -2.251396    1.094503
H     -1.198587   -2.480879    1.858634
H     -0.171868   -1.183671    2.489708
H     -1.923114    0.809149    1.678423
H     -2.702374   -0.773189    2.030219
H     -3.097827    0.066777    0.498131
H      1.789771    1.775012   -0.807073
H      2.352858    2.175197    0.868586
H     -0.085107    1.925856    1.165462
H      0.745433    0.489092    1.770406
H     -2.740758    1.023206   -2.317526
H     -0.989394   -2.589945   -0.720433
H     -2.624589   -2.279383   -0.103910
H      0.324607   -1.335485   -1.641415
H      0.958240    0.288078   -1.939462
