62

C      7.580455   -0.391367    1.217978
C     -7.542947   -0.123211   -1.685534
C      5.228438   -0.637233    0.495928
C     -5.084980   -0.400987   -1.600762
C      6.009039    1.555008    1.142763
C     -6.273569   -0.004020    0.436259
C      6.246160    0.208480    0.950994
C     -6.260989   -0.178161   -0.929849
C      3.992876   -0.068957    0.251148
C     -3.897974   -0.449978   -0.885912
C      4.765447    2.094284    0.890937
C     -5.111175   -0.046412    1.174066
C      3.754809    1.271822    0.443185
C     -3.931947   -0.271381    0.482899
C      0.917587   -0.972327   -1.621075
C     -0.380723   -1.677172   -1.187076
C      1.424549    0.950386   -0.184782
C     -1.505517   -0.435463    0.632038
C      0.834660   -1.255372    0.778112
C     -0.721557    0.707242   -1.421134
C      2.415340    1.752701    0.201273
C     -2.685004   -0.276777    1.207027
C      0.317162    0.164387   -2.419455
C      0.118874   -2.400784    0.044585
C      0.080692    1.461775   -0.433642
C     -0.255350   -0.447124    1.386652
C      2.950515   -0.976532   -0.276061
C     -2.625789   -0.726915   -1.532459
C      1.560984   -0.525973   -0.338705
C     -1.338419   -0.561591   -0.857906
O      4.536677    3.469491    1.090769
O     -5.097807    0.126076    2.551125
O      2.165787    3.109164    0.383509
O     -2.733959   -0.102158    2.604473
O      1.254720    1.120407   -2.739459
O     -0.903262   -2.929938    0.789585
O     -0.323220    2.468696    0.164600
O     -0.195226    0.195014    2.445294
O      3.233195   -2.131484   -0.673263
O     -2.649784   -1.124269   -2.720865
H      7.705106   -1.244588    0.527622
H      7.528552   -0.827807    2.251202
H      8.390783    0.361296    1.130814
H     -7.321210    0.024279   -2.766905
H     -8.102034    0.787461   -1.328995
H     -8.131208   -1.038597   -1.522732
H      5.424030   -1.705630    0.345925
H     -5.039451   -0.540053   -2.658911
H      6.844545    2.152696    1.497044
H     -7.234422    0.170086    0.926578
H      1.547992   -1.633005   -2.230982
H     -0.749132   -2.335864   -1.969834
H      1.503825   -1.713591    1.500862
H     -1.447821    1.329966   -1.960925
H     -0.215209   -0.268382   -3.264258
H      0.883841   -3.109235   -0.279593
H      5.322169    4.008477    1.419435
H     -5.987709    0.287323    3.005243
H      2.029876    3.528558    1.292203
H     -2.847592    0.855796    2.911982
H      0.865383    2.036722   -2.746678
H     -0.839083   -2.665253    1.736595
