78

C      4.549857   -3.116879    0.497227
C     -4.626085   -0.112395    1.667070
C      6.003767   -2.728341    0.635856
C     -5.825287   -1.018692    1.678585
C      2.310566    1.651971    0.657511
C      1.817567   -0.689412    1.275133
C     -0.038506    4.343078   -2.671259
C     -1.350046    2.411649   -2.594938
C      0.428339    4.019810   -3.920598
C     -0.899489    2.059855   -3.848776
C      1.872205    2.910367    0.338738
C      1.043010   -1.712256    1.545087
C      3.963673   -3.172989    1.895080
C     -4.017605    0.082415    0.301659
C      6.658760   -2.645938   -0.750230
C     -6.945711   -0.523676    0.826621
C      0.035322    1.033423    0.861804
C      1.359329    0.661664    0.933058
C     -0.945401    3.552928   -1.959080
C      0.001587    2.863418   -4.534222
C     -0.408705    2.302081    0.540468
C      0.539132    3.270785    0.270348
C      1.490764   -3.059991    1.886268
C     -1.691824    3.005111    0.387674
C     -1.361673    4.016878   -0.645533
C     -2.888923    2.231970    0.270515
C      8.390158   -0.967019   -0.118807
C     -8.000371   -2.705268    0.277928
N      7.563232   -0.028306   -0.337793
N      9.592334   -0.720000    0.568261
N     -7.248602   -2.869159   -0.776915
N     -8.703319   -3.811021    0.813664
N      2.625848   -3.520173    1.994711
N     -2.871968    0.959391    0.399937
N      8.055136   -2.278500   -0.592627
N     -8.095547   -1.421777    0.863080
O      0.443383    2.490613   -5.797979
O      0.401201   -3.964570    2.126576
O     -4.091672    2.873113    0.013241
O     -0.125532    4.481496   -0.032326
H      4.511305   -4.118035    0.005243
H      4.008421   -2.371897   -0.087136
H     -4.943498    0.883602    2.070667
H     -3.893875   -0.529632    2.393400
H      6.076636   -1.725637    1.121349
H      6.567518   -3.432729    1.270664
H     -6.120407   -1.131638    2.745509
H     -5.527374   -2.034738    1.301885
H      3.368366    1.445565    0.690484
H      2.882403   -0.835935    1.303583
H      0.314659    5.254466   -2.219476
H     -2.045610    1.777071   -2.091445
H      1.141244    4.673019   -4.441195
H     -1.269006    1.136079   -4.286808
H      2.621629    3.692519    0.122380
H     -0.036486   -1.479899    1.495785
H      4.303394   -2.264213    2.460976
H      4.573964   -4.008073    2.399051
H     -4.780142    0.446150   -0.384686
H     -3.696948   -0.932147   -0.047530
H      6.578281   -3.626118   -1.244711
H      6.152252   -1.886895   -1.370989
H     -6.627729   -0.333627   -0.199371
H     -7.279962    0.458426    1.246725
H     -0.728674    0.284713    1.073197
H     -1.790407    3.610462    1.360092
H     -2.082817    4.865637   -0.687350
H      7.778548    0.934155   -0.004638
H      9.816767    0.244635    0.875944
H     10.246692   -1.499255    0.763946
H     -6.712358   -2.100415   -1.212153
H     -9.498447   -4.218435    0.280731
H     -8.469011   -4.253132    1.729707
H      8.816365   -2.953137   -0.818250
H     -8.997170   -1.144567    1.312927
H      0.110909    1.644818   -6.210961
H      0.605678   -4.942152    2.302492
H     -4.984012    2.440953    0.034940
