62

C     -7.676618   -0.661259    0.569442
C      7.617537    0.289117   -0.786746
C     -5.239707   -0.965738    0.224636
C      5.225674   -0.249913   -0.675669
C     -6.220301    1.207676   -0.005432
C      6.097355    1.151244    1.010745
C     -6.321191   -0.121140    0.250073
C      6.306659    0.415193   -0.121681
C     -3.978487   -0.433663   -0.077741
C      3.975159   -0.174954   -0.106156
C     -4.947290    1.739659   -0.308631
C      4.825496    1.238480    1.604004
C     -3.840773    0.923736   -0.341958
C      3.764440    0.569085    1.034863
C     -0.592351   -1.620661   -1.103549
C      0.675970   -1.941724   -0.294107
C     -1.433025    0.603720   -0.542339
C      1.380713    0.066020    0.977010
C     -0.855134   -0.986760    1.220288
C      0.874848    0.197418   -1.400080
C     -2.487193    1.394944   -0.580532
C      2.409784    0.651898    1.548575
C      0.027637   -0.790639   -2.206055
C      0.109297   -2.178281    1.093718
C     -0.086073    1.162333   -0.810822
C      0.014680    0.166451    1.543702
C     -2.840857   -1.341317   -0.168770
C      2.875989   -0.937131   -0.689285
C     -1.447031   -0.830222   -0.176177
C      1.461629   -0.679803   -0.304786
O     -4.856864    3.065425   -0.562827
O      4.731966    1.996301    2.724503
O     -2.265304    2.754600   -0.866728
O      2.172693    1.380449    2.696517
O     -0.900451   -0.150827   -2.988369
O      1.165101   -2.004049    1.990372
O      0.171404    2.362916   -0.545364
O     -0.277983    1.161735    2.215586
O     -3.026252   -2.573361   -0.242453
O      3.098804   -1.825698   -1.527184
H     -7.931766   -0.354220    1.586638
H     -8.372032   -0.179443   -0.151537
H     -7.698306   -1.761695    0.501733
H      7.585868    0.980778   -1.677817
H      7.744859   -0.751628   -1.127378
H      8.419047    0.634506   -0.111002
H     -5.372387   -2.010420    0.434177
H      5.354803   -0.836624   -1.564413
H     -7.048480    1.898027    0.005356
H      6.917468    1.677987    1.464126
H     -1.043555   -2.550482   -1.450103
H      1.182264   -2.820427   -0.698594
H     -1.628532   -1.172522    1.980682
H      1.647871    0.676198   -2.010697
H      0.722386   -1.447671   -2.757117
H     -0.402616   -3.132996    1.197261
H     -4.147481    3.649287   -0.788244
H      4.041240    2.250454    3.344432
H     -1.888255    3.337977   -0.108160
H      2.066729    0.847803    3.573150
H     -1.800302   -0.526082   -2.818059
H      1.961228   -2.440069    1.589143
