62

C      7.921027   -1.283360   -4.026046
C     -6.937444    3.620591    0.746715
C     -1.527438    1.266904    4.067242
C      7.302243   -1.304240   -2.677594
C     -5.889535    2.887463   -0.003136
C     -2.164131    0.549601    3.183792
C      6.202308   -0.640227   -2.432227
C     -5.848980    1.583176   -0.114952
C      5.607768   -0.666232   -1.118430
C     -4.784691    0.882949   -0.873639
C      4.478278    0.004227   -0.831418
C     -4.776236   -0.417953   -0.963757
C     -0.239530    0.305575    1.447966
C      0.729407   -0.390681    2.331891
C     -2.408332   -0.634998    1.101369
C      3.673065    1.267216    1.161862
C     -2.594725   -0.330045   -2.180032
C     -1.624819    0.057939    1.915220
C      3.944586   -0.072651    0.512188
C     -3.748028   -1.148624   -1.700490
C      2.165020   -0.183402    1.957451
C     -1.938194   -1.162976   -0.191063
C      2.524420   -0.660408    0.569206
C     -3.015771   -2.086251   -0.738434
O      2.554487   -2.042154    0.477969
O     -2.503665   -3.196242   -1.368403
O      2.592969    1.114621    2.003861
O     -1.792731   -0.106105   -1.071274
H      8.946049   -1.670072   -4.033198
H      7.983619   -0.229488   -4.409949
H      7.294708   -1.928164   -4.676599
H     -7.558592    4.266983    0.118129
H     -6.381182    4.293025    1.463511
H     -7.544013    2.960187    1.384017
H     -2.084858    1.551114    4.974336
H     -0.532878    1.622693    3.982990
H      7.808463   -1.898899   -1.903624
H     -5.120162    3.469135   -0.480988
H     -3.224591    0.261930    3.378383
H      5.739875   -0.074096   -3.209835
H     -6.624971    1.015334    0.368271
H      6.073422   -1.238737   -0.327696
H     -4.038649    1.506441   -1.330529
H      4.050178    0.555233   -1.633815
H     -5.584212   -0.943817   -0.455576
H     -0.059604   -0.035335    0.416422
H     -0.075082    1.415779    1.534718
H      0.542394   -1.495822    2.219402
H      0.593140   -0.166595    3.370971
H     -3.451312   -0.822011    1.402778
H      3.372138    1.962224    0.339812
H      4.573293    1.658414    1.679469
H     -2.842122    0.622313   -2.642816
H     -2.016319   -0.899335   -2.962645
H      4.575321   -0.648147    1.186551
H     -4.193618   -1.767805   -2.496721
H      2.786863   -0.782923    2.664087
H     -0.964389   -1.698085   -0.121799
H      1.881173   -0.173068   -0.161377
H     -3.727790   -2.403432    0.043126
H      3.404880   -2.344838    0.912500
H     -1.502504   -3.153850   -1.259939
