62

C      7.392626   -1.857831   -0.514220
C      6.582820   -2.078896    0.599777
C      7.238589   -0.745156   -1.303008
C     -6.587105   -2.238519    0.433770
C     -1.264106   -1.806583   -1.582811
C      5.621114   -1.131095    0.873164
C      6.250413    0.168799   -0.970051
C     -5.239262   -2.181149    0.155201
C     -2.768907   -1.836285   -1.456550
C     -7.275288   -1.054268    0.593767
C     -4.600697    1.480769    0.073493
C     -3.178041    1.282373    0.547710
C     -0.587417   -1.134119   -0.409461
C      2.767589    1.853427    1.969619
C      2.525946    2.105726   -0.402655
C      0.843269    1.026714    0.893284
C      3.660614    0.658818    1.726511
C      4.034645    2.071076   -0.262130
C     -0.219322    1.203700   -0.180233
C      5.424287    0.007753    0.110132
C     -4.580355   -0.968738    0.036273
C     -3.146799   -1.034750   -0.256082
C     -5.297612    0.179744    0.201515
C     -2.480988    0.327825   -0.397913
C     -6.643928    0.165163    0.480491
N      1.836356    2.060207    0.873265
N      4.404178    0.909431    0.490856
N     -1.121651    0.123955   -0.053503
O     -7.351530    1.356255    0.644582
H      8.151281   -2.605799   -0.729462
H      6.721327   -2.967181    1.212083
H      7.892368   -0.609766   -2.164620
H     -7.072975   -3.204849    0.520227
H     -0.924263   -1.357502   -2.520819
H     -0.910776   -2.864091   -1.577520
H      4.999220   -1.325137    1.748106
H      6.155097    1.032618   -1.605501
H     -4.710825   -3.140834    0.031975
H     -3.184858   -1.321679   -2.358211
H     -3.170710   -2.877265   -1.445058
H     -8.355354   -1.076203    0.817763
H     -4.582701    1.854757   -0.953155
H     -5.071003    2.206476    0.787826
H     -2.706968    2.294645    0.537367
H     -3.118221    0.851314    1.552164
H     -0.595808   -1.839164    0.442128
H      0.488839   -1.011525   -0.710613
H      2.149652    1.700296    2.875143
H      3.392279    2.768654    2.037278
H      2.193678    3.033243   -0.908947
H      2.227343    1.229592   -0.981611
H      0.315904    1.110427    1.888811
H      1.271779    0.008896    0.878142
H      4.401755    0.619565    2.548010
H      3.108457   -0.278241    1.711928
H      4.401413    2.974019    0.268707
H      4.427951    2.000511   -1.294332
H     -0.685154    2.189637    0.029462
H      0.222777    1.305469   -1.196392
H     -2.674638   -1.547062    0.634738
H     -2.659646    0.651878   -1.446189
H     -8.336660    1.279951    0.849120
