35

C      4.139240   -1.781556   -0.626939
C      5.013550    0.492808    0.078022
C     -4.929847   -1.056460    0.746402
C     -1.470710    2.316169    0.595152
C     -0.088762    2.553227    0.677245
C     -3.339353    0.702165    0.088179
C      3.853397   -0.395205   -0.202712
C     -3.464508   -0.672013    0.713410
C     -1.912562    1.074907    0.210667
C      0.807538    1.552172    0.375525
C     -1.006910    0.082870   -0.088275
C      2.261615    1.441694    0.351293
C      2.625606    0.078255   -0.065383
C      0.354710    0.308745   -0.009727
C     -1.548337   -1.237954   -0.499633
O      3.080800    2.347342    0.635171
O     -0.536614   -2.209291   -0.362236
O     -2.674011   -1.632278    0.161661
O      1.403926   -0.551132   -0.267025
H      3.323590   -2.476819   -0.337625
H      4.282061   -1.754222   -1.746460
H      5.098266   -2.104152   -0.172560
H      4.926408    1.431852   -0.540425
H      4.872602    0.839358    1.141677
H      5.972574    0.003992   -0.075165
H     -5.538366   -0.313042    0.188047
H     -5.068919   -2.029155    0.207890
H     -5.333095   -1.110790    1.778584
H     -2.188500    3.075272    0.823687
H      0.271777    3.505177    0.972284
H     -3.962135    1.404386    0.652971
H     -3.654376    0.658966   -0.994988
H     -3.152470   -0.538333    1.790927
H     -1.818994   -1.123494   -1.590153
H     -0.599188   -2.883462   -1.079617
