77

C     -9.603135   -1.491601   -2.433619
C      3.191074    2.635887    0.283378
C     10.779305   -1.647997   -1.821628
C     -5.506523    2.012326   -0.453335
C     -4.520599    2.334342    0.565585
C     -6.910335    1.671995   -0.132534
C     -4.118018    1.408621    1.629032
C     -7.050426    0.417886    0.647755
C     -3.593664    0.086230    1.223578
C     -8.491964    0.060697    0.947711
C     -2.398171    0.172089    0.349477
C     -9.329465   -0.145748   -0.276283
C     -1.255506    0.865735    1.028852
C      7.367035   -2.249946    1.714621
C      6.085799   -0.985415    0.012677
C      0.427405   -0.443152   -0.337765
C      8.469960   -2.872480    2.214966
C      1.399454   -0.247493   -1.483018
C      5.983499   -0.373616   -1.140331
C      8.477200   -1.651774   -0.253355
C     -8.870430   -1.251536   -1.146004
C      1.983766    1.928052   -0.331133
C      7.312855   -1.618854    0.477781
C     -0.072372    0.887924    0.082554
C      9.628588   -2.892338    1.460082
C      2.381626    0.854757   -1.276473
C      9.620405   -2.278962    0.227916
C      4.740154    0.252286   -1.583049
N      1.068853    1.573807    0.700085
O     -7.936818   -1.979816   -0.886178
O     10.760629   -3.520582    1.951447
O      4.688315    0.830622   -2.697046
O     10.773121   -2.281541   -0.558393
O      3.588605    0.241578   -0.824771
H    -10.672694   -1.244845   -2.246897
H     -9.565505   -2.555422   -2.723149
H     -9.202472   -0.819193   -3.223762
H      2.791263    3.274995    1.122184
H      3.924501    1.934389    0.695910
H      3.626873    3.324556   -0.462405
H     10.556498   -0.580596   -1.704203
H      9.963841   -2.098525   -2.441464
H     11.746855   -1.852342   -2.331825
H     -5.580086    2.941608   -1.137429
H     -5.125386    1.245172   -1.208570
H     -3.586839    2.766489    0.085363
H     -4.921016    3.267751    1.113142
H     -7.363206    2.554638    0.404166
H     -7.489732    1.639629   -1.095670
H     -3.198935    1.927292    2.128738
H     -4.781105    1.357143    2.537205
H     -6.531217    0.526919    1.618488
H     -6.621613   -0.403113    0.039942
H     -4.368952   -0.618463    0.850509
H     -3.241658   -0.413106    2.182658
H     -8.439917   -0.946072    1.462578
H     -8.950948    0.760792    1.659821
H     -2.128596   -0.881816    0.073734
H     -2.665446    0.723759   -0.601927
H     -9.282680    0.807250   -0.882586
H    -10.408243   -0.295799    0.012244
H     -1.542408    1.944041    1.171537
H     -0.999585    0.390634    1.996114
H      6.451797   -2.240595    2.323131
H      5.212658   -1.024504    0.658434
H     -0.298141   -1.223479   -0.527287
H      1.072909   -0.820284    0.513285
H      8.491723   -3.361645    3.187326
H      1.909834   -1.215191   -1.725844
H      0.783108   -0.000974   -2.374295
H      6.831677   -0.326296   -1.783978
H      8.539656   -1.198185   -1.210199
H      1.480551    2.732351   -0.946918
H     -0.377551    1.468152   -0.815071
H      2.636439    1.291231   -2.292965
H      1.534699    0.894642    1.344131
H     10.718826   -3.954975    2.855557
