64

C     -1.991331   -4.293774   -0.539105
C     -2.859976   -3.175250   -0.027518
C      7.801610    1.924471    0.315496
C      7.609078    0.681621    0.859020
C      6.819064    2.592084   -0.367901
C     -4.683511    3.654654    1.053657
C     -3.523959    2.952349    0.889113
C      6.372875    0.049644    0.725988
C      5.578733    1.962494   -0.504580
C     -5.844563    3.129319    0.481043
C     -3.290712   -0.172700   -1.849661
C     -4.568744   -0.003293   -1.114214
C     -2.167940   -1.919992    0.330684
C      0.969625   -1.637737   -0.285542
C      1.772485    0.621206   -0.606536
C      2.272897   -0.609393    1.375180
C     -0.264566   -1.572032   -1.163945
C      3.172754    0.402022   -1.148147
C      3.685755   -0.901964    0.882036
C     -2.171196    1.048042    0.061608
C     -3.448881    1.746408    0.182747
C      5.364218    0.714490    0.034152
C     -2.036357    0.060458   -1.047881
C     -4.604326    1.277412   -0.355292
C     -5.827301    1.950565   -0.222647
N      1.330249   -0.382532    0.310310
N     -1.453129   -1.183145   -0.579448
N      4.100615    0.093199   -0.094821
O     -6.944531    1.394462   -0.804516
H     -0.980178   -4.302334   -0.058931
H     -1.942008   -4.341760   -1.635124
H     -2.419568   -5.302175   -0.246437
H     -3.693671   -3.047718   -0.752011
H     -3.380096   -3.614812    0.882873
H      8.755597    2.428975    0.411727
H      8.380377    0.159792    1.392614
H      6.946689    3.586612   -0.817198
H     -4.756426    4.585815    1.600823
H     -2.611486    3.327197    1.322796
H      6.204850   -0.926946    1.140131
H      4.776660    2.483624   -1.044285
H     -6.780219    3.677307    0.602824
H     -3.330260    0.542474   -2.735266
H     -3.292036   -1.172820   -2.321215
H     -5.371256    0.106906   -1.902344
H     -4.873556   -0.848353   -0.496145
H     -2.923676   -1.303242    0.899197
H     -1.447831   -2.202979    1.182239
H      1.812554   -2.034931   -0.890245
H      0.804622   -2.407567    0.516568
H      1.104853    0.660077   -1.475253
H      1.787979    1.597368   -0.073225
H      1.942692   -1.508282    1.935263
H      2.311769    0.297033    2.014513
H     -0.335018   -2.626239   -1.587302
H      0.023480   -0.957344   -2.077729
H      3.176364   -0.471497   -1.863478
H      3.438495    1.264843   -1.766415
H      4.320525   -0.926160    1.769467
H      3.698199   -1.882707    0.382408
H     -1.967666    0.591657    1.068174
H     -1.377585    1.859982    0.004644
H     -1.294562    0.481232   -1.768273
H     -7.877543    1.823883   -0.757959
