77

C     -9.113397    3.128943   -2.290512
C      1.788711   -2.501835    1.456050
C      9.666078    3.221534   -1.873117
C     -4.451044   -0.847568   -0.920007
C     -4.745520   -1.473525    0.430310
C     -4.663279    0.627976   -0.906345
C     -4.507048   -2.929866    0.455508
C     -6.057113    1.036108   -0.540307
C     -3.146349   -3.456184    0.258619
C     -7.058051    0.493618   -1.501368
C     -2.099478   -3.220723    1.245095
C     -8.462628    0.954520   -1.092830
C     -1.581474   -1.941644    1.668487
C      8.103776    0.324111    1.893331
C      5.977533    0.649175    0.684688
C     -0.483081    0.210149    1.394636
C      9.457470    0.513671    2.074908
C      0.971122    0.354659    1.638777
C      5.235520    1.133424   -0.282188
C      8.147527    1.645314   -0.052782
C     -8.573494    2.431094   -1.094164
C      1.413174   -1.626964    0.311355
C      7.404901    0.885466    0.821161
C     -0.924083   -1.025147    0.682034
C     10.194992    1.276399    1.194858
C      1.769542   -0.180913    0.480747
C      9.522337    1.837557    0.131914
C      3.792236    0.864844   -0.376014
N      0.054707   -1.737805   -0.039959
O     -8.226164    3.058083   -0.127536
O     11.556634    1.452830    1.398762
O      3.091447    1.334724   -1.305899
O     10.248914    2.608198   -0.763802
O      3.124293    0.087472    0.542873
H     -8.327646    3.719082   -2.807554
H     -9.554763    2.372183   -2.968896
H     -9.949437    3.780329   -1.929871
H      1.110466   -3.390267    1.434975
H      1.676284   -2.060274    2.449442
H      2.817639   -2.947518    1.308499
H     10.506360    3.565517   -2.539285
H      9.019204    2.482253   -2.384150
H      9.127273    4.131378   -1.555287
H     -3.491314   -1.103036   -1.355107
H     -5.207249   -1.269022   -1.643126
H     -4.270740   -0.974079    1.273525
H     -5.876289   -1.344531    0.537971
H     -4.507952    0.971413   -1.971908
H     -3.940675    1.139194   -0.229822
H     -4.920090   -3.323459    1.423406
H     -5.156575   -3.421410   -0.345955
H     -6.119976    2.143002   -0.423077
H     -6.334242    0.648594    0.486222
H     -3.270178   -4.593501    0.189259
H     -2.851132   -3.209229   -0.800176
H     -7.052712   -0.622880   -1.508752
H     -6.891528    0.824960   -2.538174
H     -1.195149   -3.919764    1.049617
H     -2.483142   -3.732931    2.211343
H     -8.700455    0.569721   -0.077202
H     -9.204391    0.497860   -1.803490
H     -2.280950   -1.375184    2.328645
H     -0.721935   -2.177392    2.415295
H      7.527586   -0.285018    2.599915
H      5.491909    0.026715    1.438521
H     -1.004069    0.284160    2.387413
H     -0.817978    1.150392    0.862809
H      9.981116    0.063883    2.922017
H      1.252937    1.447892    1.714235
H      1.275305   -0.071735    2.617247
H      5.678986    1.747151   -1.036704
H      7.644501    2.101471   -0.902352
H      2.018203   -1.985133   -0.575715
H     -1.703031   -0.699791   -0.030147
H      1.369439    0.345923   -0.428513
H     -0.185735   -2.710134   -0.242812
H     12.093413    2.015520    0.747740
