74

C     -8.499269   -0.174806    0.925999
C     -8.194874    1.134249    1.138361
C      8.739867   -2.328626   -0.306064
C     -7.663991   -0.909417    0.104029
C      8.993319   -0.840834   -0.410438
C     -7.073963    1.706821    0.541316
C      7.445180    1.101849   -0.719245
C      6.290997    1.793721   -0.335451
C      4.294957    2.065679    1.079951
C      3.136210    1.539750    0.261761
C     -1.772407    1.820205    0.479505
C     -0.772058    0.448978   -1.284092
C      8.158502   -2.718807    1.018590
C     -0.526219    2.672855    0.342612
C      0.680760    0.896560   -1.053741
C     -2.303572   -0.675044    0.389592
C     -5.711352   -1.181794   -1.354366
C     -4.080531   -2.274284    0.665751
C     -4.335745    0.700676   -1.806437
C     -1.434160    0.433124    0.068640
C      7.789528   -0.047938   -0.067489
C     -6.562097   -0.356632   -0.486195
C     -3.687992   -0.899639    0.055272
C     -4.217621   -0.743700   -1.294934
C      5.506093    1.321142    0.691599
C     -6.259570    0.956346   -0.271065
C      1.870631    2.250497    0.601451
C     -3.266588   -3.372565    0.129993
C      6.984905   -0.495387    0.955321
N      7.363487   -1.693701    1.619247
N     -5.102580    1.511640   -0.892742
N      5.859108    0.194446    1.317551
N      0.650490    1.939336   -0.042917
O      1.906862    3.143625    1.482460
O     -2.169827   -3.778040    0.629957
O     -3.648361   -4.091225   -1.021835
H     -9.356976   -0.607688    1.384770
H     -8.814793    1.745445    1.769710
H      9.696100   -2.839289   -0.488585
H      8.014914   -2.599849   -1.090205
H     -7.910759   -1.952204   -0.062057
H      9.209026   -0.637298   -1.490913
H      9.847753   -0.497414    0.182769
H     -6.829066    2.747121    0.708242
H      8.027486    1.499926   -1.520320
H      6.059008    2.682692   -0.867296
H      4.411088    3.150664    0.801799
H      4.140226    1.927292    2.160210
H      3.031857    0.467993    0.507353
H      3.358004    1.612874   -0.817710
H     -2.047121    1.867928    1.576259
H     -2.568290    2.308900   -0.105864
H     -0.812242   -0.496449   -1.820848
H     -1.193545    1.316859   -1.865117
H      9.001342   -2.954545    1.728942
H      7.544166   -3.648516    0.923338
H     -0.693297    3.429848   -0.466063
H     -0.333831    3.262225    1.254596
H      1.153233    1.235374   -1.983835
H      1.200834    0.022321   -0.616192
H     -2.136288   -0.896130    1.536617
H     -1.722037   -1.619691    0.001018
H     -6.000545   -0.941243   -2.413502
H     -5.822953   -2.257237   -1.245509
H     -3.780156   -2.157552    1.748923
H     -5.153906   -2.421040    0.663929
H     -3.396906    1.184789   -2.017254
H     -4.920550    0.609714   -2.773803
H     -0.458268    0.252256    0.765243
H     -4.380661   -0.199542    0.705809
H     -3.704277   -1.325386   -2.040139
H      7.046699   -1.844506    2.607591
H     -4.864386    2.485008   -0.660643
H     -3.229008   -4.962716   -1.281784
