45

C     -1.084999    2.340793    1.046250
C      3.728630   -2.132481   -2.041448
C      5.137482   -0.070843    0.928866
C     -6.274071   -1.719453   -1.249308
C     -5.010871   -1.835972   -1.774691
C     -6.417638   -1.209222    0.017668
C     -3.915319   -1.444006   -1.025769
C     -5.316308   -0.822807    0.748478
C      1.477896    1.088561    0.721484
C      2.839432    1.049907   -1.354375
C     -2.821703   -0.520704    1.033168
C     -1.025592    0.829696    0.885315
C     -4.037653   -0.931297    0.245137
C      2.338019    1.853296   -0.204668
C      0.238188    0.559153    0.122805
C      3.690226   -0.122672   -0.903136
O      3.460628    2.411181    0.439938
O      0.244112   -0.043425   -0.912763
O      4.064628   -0.781460   -2.095372
O      4.863697    0.420168   -0.333457
O     -2.152086    0.399994    0.238105
H     -2.144264    2.613161    1.256362
H     -0.731252    2.830724    0.130716
H     -0.467386    2.648806    1.903268
H      2.630897   -2.174915   -1.908333
H      4.225460   -2.656541   -1.184757
H      4.039623   -2.593136   -3.006263
H      5.276444   -1.192171    0.919198
H      6.036546    0.423273    1.362633
H      4.277835    0.094887    1.596086
H     -7.157373   -2.024490   -1.827147
H     -4.857748   -2.235650   -2.776686
H     -7.391256   -1.093807    0.473592
H     -2.904623   -1.530096   -1.431689
H     -5.405177   -0.410014    1.766158
H      1.291200    1.692683    1.645268
H      2.004525    0.170155    1.133936
H      1.988352    0.729681   -1.993710
H      3.461103    1.697760   -2.053047
H     -2.260654   -1.424043    1.263316
H     -3.140449   -0.069536    1.990902
H     -0.928566    0.323685    1.868644
H      1.766919    2.718818   -0.657662
H      3.212154   -0.797244   -0.200260
H      3.150995    2.939603    1.221301
