41

C     -4.139468    1.562954    1.554044
C     -4.916157    1.418894   -2.059805
C      6.367570    0.962721   -0.710399
C      6.284510   -0.170941    0.078471
C      5.213975    1.502281   -1.249499
C     -2.602030   -1.327960    0.626101
C      5.042134   -0.730704    0.303220
C      3.979835    0.928795   -1.013933
C     -1.447723   -1.483286    1.238094
C     -2.669525   -0.585397   -0.614600
C      2.571575   -0.874700    0.065918
C      0.881870   -0.954839    1.621280
C      3.895111   -0.192606   -0.233946
C     -0.246823   -0.896360    0.645360
C     -3.606023    0.606833   -0.415522
O      0.054944   -1.611758   -0.500640
O     -3.160792    1.446051    0.580431
O     -3.611884    1.368725   -1.607148
O      2.015126   -0.361928    1.194131
H     -5.099459    1.982473    1.150457
H     -3.827749    2.226923    2.387556
H     -4.362403    0.564298    2.026966
H     -5.252885    0.370082   -2.247604
H     -5.621752    1.878423   -1.345805
H     -4.934395    1.992439   -3.009893
H      7.318802    1.441495   -0.917899
H      7.185442   -0.583631    0.493376
H      5.263950    2.396449   -1.873842
H     -3.510943   -1.750599    1.039328
H      4.967399   -1.626857    0.925584
H      3.067097    1.338554   -1.428377
H     -1.365447   -2.030551    2.161061
H     -3.202981   -1.233362   -1.372580
H     -1.760064   -0.257426   -1.072129
H      2.765799   -1.953046    0.195938
H      1.944623   -0.727620   -0.867547
H      0.534643   -0.437232    2.586743
H      1.042908   -2.038004    1.920363
H     -0.346925    0.154715    0.331397
H     -4.624133    0.257508   -0.162057
H     -0.087751   -2.571804   -0.422597
