44

C      1.111435   -0.536563    2.776675
C     -3.670386   -0.875701   -2.232390
C     -5.586815    1.596491    0.124655
C      5.976129    0.208528   -2.111022
C      4.744393    0.030854   -2.720304
C      5.983001    0.627170   -0.799779
C     -2.396464   -0.206170    1.579544
C      3.572308    0.265979   -2.034362
C      4.805789    0.858745   -0.125178
C     -1.458287   -1.107353    1.802248
C     -2.372308    0.753545    0.458263
C      2.288389    0.936909    0.011455
C      0.752039   -0.188384    1.325209
C      3.563884    0.688226   -0.712486
C     -0.282927   -1.204950    0.898642
C     -3.633433    0.484937   -0.372214
O      0.216894   -2.517608    1.058089
O     -3.615027   -0.821098   -0.839611
O     -4.705309    0.588744    0.513459
O      1.916675   -0.251605    0.613465
H      1.790698    0.273811    3.116644
H      0.226103   -0.676313    3.392886
H      1.749280   -1.455225    2.694590
H     -2.766855   -0.322598   -2.620120
H     -3.563762   -1.907851   -2.606193
H     -4.554133   -0.401838   -2.661218
H     -5.100291    2.577655    0.088598
H     -6.050301    1.323573   -0.844968
H     -6.407771    1.614544    0.874453
H      6.901520    0.028234   -2.635845
H      4.730516   -0.300962   -3.759972
H      6.938928    0.766647   -0.321946
H     -3.238174   -0.164815    2.259315
H      2.631051    0.116307   -2.543476
H      4.824580    1.186005    0.900415
H     -1.576497   -1.776323    2.671482
H     -2.500199    1.813988    0.824566
H     -1.531153    0.656734   -0.225957
H      1.518672    1.404519   -0.598194
H      2.509536    1.656690    0.850134
H      0.324313    0.813888    1.282975
H     -0.566373   -1.130627   -0.162217
H     -3.687543    1.203608   -1.191525
H      0.187875   -2.806626    2.001213
