43

C     -0.864228   -2.869761    1.042162
C      4.600866    2.771465   -0.719187
C      5.928168   -0.489398    0.782628
C     -6.026395    1.840904    0.389189
C     -6.279209    0.885098   -0.561634
C     -4.818421    1.830658    1.036915
C     -5.333416   -0.073219   -0.863239
C     -3.872196    0.864599    0.728956
C      2.903520   -0.212618   -0.520715
C     -3.125205   -1.152472   -0.581746
C     -1.083021   -2.034007   -0.221938
C     -4.113557   -0.101967   -0.224801
C      1.682911    0.674288   -0.476805
C      4.179173    0.532226   -0.317907
C      0.172444   -1.403892   -0.669624
C      0.324503    0.046146   -0.668140
O      1.080022   -2.111969   -1.040445
O      4.409131    1.513891   -1.269256
O      5.229804   -0.379148   -0.422806
O     -1.969409   -1.027580    0.152919
O      0.990097    0.699204   -1.698016
H      0.126997   -3.351995    1.029828
H     -1.678647   -3.612924    1.062645
H     -0.967243   -2.218628    1.937379
H      5.468079    2.809187   -0.030781
H      3.663317    3.100118   -0.267423
H      4.834424    3.458932   -1.558870
H      6.363071    0.482857    1.096377
H      6.781803   -1.190185    0.692512
H      5.256040   -0.809458    1.606327
H     -6.759635    2.608177    0.643718
H     -7.233851    0.900828   -1.067031
H     -4.585699    2.564709    1.788094
H     -5.554194   -0.820956   -1.619572
H     -2.925596    0.878468    1.255169
H      2.988697   -0.786119   -1.466554
H      2.834961   -0.979258    0.287457
H     -2.857750   -1.094541   -1.660721
H     -3.553307   -2.171059   -0.357885
H     -1.541379   -2.671269   -1.013658
H      1.688839    1.553640    0.163582
H      4.189067    0.925402    0.714965
H     -0.553575    0.621624   -0.313745
