44

C      1.610090   -0.239056   -2.047359
C     -6.215941    0.455434   -0.970302
C     -3.772803   -1.472340    1.268718
C      6.263540   -0.256878    0.154482
C      5.682598   -1.506434    0.089950
C      5.450818    0.767461    0.591769
C     -2.092385    1.206293    0.669026
C      4.373141   -1.700201    0.443505
C      4.132285    0.594113    0.951976
C     -0.802988    0.887871    0.576102
C     -2.944781    1.219502   -0.526222
C      2.167347   -0.898141    1.257582
C      1.173691    0.099954   -0.610204
C      3.587868   -0.664016    0.874790
C     -0.254898    0.552024   -0.737071
C     -4.064484    0.195850   -0.282283
O     -0.251932    1.641592   -1.614576
O     -4.925233    0.133042   -1.355720
O     -3.464878   -1.028574   -0.007228
O      1.303137   -0.970062    0.214743
H      1.188916    0.569613   -2.681084
H      1.169545   -1.193928   -2.330657
H      2.710661   -0.184113   -2.151064
H     -6.908913    0.405147   -1.833386
H     -6.246400    1.427635   -0.440728
H     -6.588510   -0.330047   -0.253066
H     -3.415095   -0.733991    1.991703
H     -3.269977   -2.428401    1.472853
H     -4.865888   -1.662987    1.356999
H      7.310050   -0.078233   -0.123604
H      6.339788   -2.311544   -0.259186
H      5.900021    1.768764    0.648363
H     -2.501301    1.455397    1.640164
H      3.962396   -2.686320    0.378347
H      3.527585    1.448378    1.297588
H     -0.154534    0.876222    1.449408
H     -2.470324    0.934784   -1.461109
H     -3.507115    2.197431   -0.625003
H      1.900848   -0.085226    1.950683
H      2.165896   -1.827279    1.866478
H      1.784569    0.936482   -0.245885
H     -0.852201   -0.251343   -1.258389
H     -4.639803    0.491736    0.618293
H      0.505594    2.244389   -1.465831
