44

C     -0.754632   -2.972892    0.859660
C      5.881420    1.557708    1.420674
C      4.084400    0.357783   -1.772987
C     -6.139433    1.092955   -0.363705
C     -4.998216    1.760338   -0.783169
C     -6.085292   -0.280014   -0.232157
C      1.557561    1.189320   -0.011426
C     -3.828066    1.092892   -1.067524
C     -4.917577   -0.954619   -0.514999
C      0.592709    0.342021   -0.291870
C      2.523186    0.895757    1.076441
C     -2.531210   -1.050737   -1.231157
C     -0.626793   -1.793247   -0.120286
C     -3.787623   -0.278970   -0.931926
C      0.459705   -0.905149    0.468725
C      3.897392    0.850541    0.458967
O      0.046424   -0.674725    1.802239
O      4.901071    0.585341    1.357629
O      3.888940   -0.170867   -0.488888
O     -1.823667   -1.119929   -0.052870
H     -1.549570   -3.657734    0.555178
H      0.234279   -3.452540    1.006705
H     -1.057994   -2.507879    1.838548
H      5.529530    2.547578    1.708428
H      6.606868    1.227374    2.206959
H      6.459652    1.543590    0.462517
H      5.034988    0.889737   -1.879892
H      3.268359    1.071762   -2.038670
H      4.049533   -0.438408   -2.542650
H     -7.044389    1.646196   -0.147795
H     -5.049335    2.849090   -0.884991
H     -6.978099   -0.824520    0.098415
H      1.661131    2.126539   -0.579675
H     -2.927283    1.609175   -1.397487
H     -4.882311   -2.043752   -0.408304
H     -0.081604    0.634507   -1.113275
H      2.430872    1.759933    1.799593
H      2.275007   -0.047759    1.583351
H     -1.923643   -0.588199   -2.008399
H     -2.882079   -2.063529   -1.573364
H     -0.375803   -2.185516   -1.122070
H      1.389182   -1.511484    0.501528
H      4.057078    1.809764   -0.060656
H     -0.584671    0.082566    1.853744
