38

C      2.362203    1.104994   -0.340435
C      3.538084    1.149940   -1.063030
C      2.465850   -1.238433   -0.257175
C     -4.249580   -0.114603   -0.664270
C     -2.387827   -1.573798   -0.847433
C     -1.502353    1.154075    1.495424
C      1.785286   -0.092270    0.087667
C     -3.679238   -1.253254   -1.212266
C     -2.279903    0.322267    0.550246
C      4.188374   -0.018229   -1.387958
C     -3.544791    0.673762    0.219863
C      3.640179   -1.210786   -0.977743
C     -0.065635    1.194892    0.955056
C     -1.645347   -0.806685    0.038856
C      0.536652   -0.166868    0.856929
O     -4.400686   -2.053891   -2.112842
O      5.360560    0.062205   -2.110510
O     -4.152827    1.791207    0.736346
O      4.299426   -2.379978   -1.308098
O      0.681353    1.920219    1.892420
O     -0.348851   -1.145568    0.393486
O     -0.001895    0.371331   -0.000000
H      1.885340    2.023057   -0.106222
H      3.928102    2.108941   -1.361791
H      2.077741   -2.196714    0.040379
H     -5.268990    0.148924   -0.944743
H     -1.935125   -2.475918   -1.281119
H     -1.839068    2.188952    1.548482
H     -1.520851    0.636833    2.483759
H     -0.131392    1.727695   -0.012769
H      0.820535   -0.471191    1.906945
H     -4.957186   -2.813086   -1.703546
H      5.778446    0.916357   -2.419777
H     -3.814755    2.461420    1.371589
H      3.972927   -3.295203   -1.050960
H      0.403347    1.720737    2.819116
H      0.814614   -0.185036    0.000000
H     -0.812719   -0.186294   -0.000000
