33

C      1.597407   -1.557477    0.141013
C      2.673404   -0.488215    0.159940
C     -1.103827    2.210956    0.384069
C     -2.108977    1.209499   -0.043991
C      0.638277   -1.349075   -1.016153
C      2.089785    0.740812   -0.489443
C      0.220737    1.604162    0.804561
C     -1.848507   -1.085871    0.707651
C     -1.520501   -0.142736   -0.411041
C     -0.145691   -0.086013   -0.907561
N      0.707189    0.890143   -0.291797
O     -1.393823   -2.384630    0.537258
Cl     0.687611    0.000000    0.000000
H      2.110960   -2.523679   -0.051817
H      1.147096   -1.614734    1.124631
H      3.568710   -0.801904   -0.384807
H      2.959220   -0.222999    1.210115
H     -1.443790    2.863953    1.215228
H     -0.864098    2.905251   -0.458523
H     -2.859772    1.101986    0.767292
H     -2.685894    1.660757   -0.902376
H      1.353172   -1.304255   -1.907643
H      0.088656   -2.267252   -1.181737
H      2.633049    1.662929   -0.224588
H      2.270955    0.610082   -1.598327
H      0.030863    1.036780    1.736337
H      0.896015    2.464283    0.997315
H     -1.625220   -0.683579    1.710913
H     -2.978434   -1.189760    0.720989
H     -2.182755   -0.499836   -1.260461
H     -0.203506    0.298933   -1.984760
H     -2.020700   -3.058509    0.897710
H     -0.687611    0.000000    0.000000
