36

C     -2.471858   -1.224542    2.877747
C      3.721359   -2.237846   -1.018563
C     -3.488270    0.107048    1.024451
C      1.967905    1.760154   -2.065759
C     -1.601612    2.490090   -1.380830
C     -2.244804   -0.130761    1.888231
C     -1.841815    1.420699   -0.378990
C     -3.176059    1.312021    0.202498
C      2.939263    0.849617   -1.644115
C      0.710162    1.650452   -1.510652
C      0.423570    0.678437   -0.575031
C      1.390219   -0.226800   -0.156189
C     -0.924729    0.559810    0.020537
C      2.644589   -0.118788   -0.708616
C      1.036857   -1.227590    0.828535
O     -4.070918    2.183009    0.043647
O      4.228746    0.888272   -2.150151
O      1.172744   -0.987859    2.040267
O      0.549861   -2.444596    0.407391
O      3.611903   -1.026135   -0.288220
O     -0.301555    2.506129   -1.870619
O     -1.198944   -0.433108    0.969534
H     -2.524901   -2.194700    2.343839
H     -3.441669   -1.021107    3.387076
H     -1.694564   -1.184978    3.643495
H      4.261876   -2.072341   -1.996062
H      2.730060   -2.680724   -1.251942
H      4.368443   -2.970458   -0.472288
H     -4.394403    0.231314    1.630730
H     -3.566898   -0.815502    0.381594
H      2.222298    2.511139   -2.800719
H     -1.759687    3.462529   -0.828528
H     -2.384895    2.492584   -2.179264
H     -2.056424    0.840596    2.411481
H      4.929425    0.233426   -1.847671
H      0.234727   -3.179490    1.023155
