49

C      0.207502    1.105064   -2.870794
C      4.051855    1.830679    1.919530
C     -3.934220    1.258991    1.370802
C     -3.751473    2.563985    0.979588
C     -0.411137   -3.322285   -1.660210
C     -2.901839    0.341996    1.274207
C     -2.513771    2.962420    0.481867
C     -0.294145   -2.138136   -2.311374
C      0.150543   -0.475144    1.812759
C     -0.138567   -3.471392   -0.193824
C      0.046663   -2.016505    1.765232
C      1.582798   -0.882871   -1.248125
C     -0.348400    0.357928   -1.717671
C     -1.705284    0.768464    0.782538
C      1.677614    0.548312   -0.699168
C     -1.463172    2.074740    0.371943
C      2.719671    0.680964    0.292664
C     -0.635892   -1.262576   -0.195668
C      0.105469   -1.020582   -1.532283
C     -0.429698   -0.005918    0.573326
C      0.294547    0.853827   -0.374512
N     -0.096675    2.170643   -0.090758
N      0.267537   -2.263805    0.400744
O      3.429509   -0.350611    0.555833
O      3.003274    1.828671    0.970524
H      0.356083    2.161119   -2.581212
H      1.094854    0.645675   -3.344706
H     -0.582752    1.119084   -3.677818
H      4.031109    2.768356    2.510882
H      5.035907    1.714177    1.451956
H      3.950966    1.001754    2.660417
H     -4.871046    0.881436    1.766880
H     -4.575486    3.263505    1.064956
H     -0.712822   -4.225006   -2.187754
H     -3.044055   -0.676646    1.579437
H     -2.385936    3.983282    0.180661
H     -0.508991   -2.129901   -3.355291
H     -0.501461   -0.160600    2.674661
H      1.162316   -0.236165    2.079992
H      0.545841   -4.335711   -0.012224
H     -1.113536   -3.787802    0.280974
H      0.819406   -2.433963    2.441228
H     -0.967349   -2.278697    2.101394
H      2.162827   -0.993358   -2.175823
H      1.893110   -1.572561   -0.448832
H     -1.422439    0.500734   -1.600282
H      1.979277    1.181082   -1.582025
H     -1.642973   -1.608624   -0.329721
H      0.384443    3.081972   -0.154923
