53

C     -2.418988    1.471533    1.478456
C     -3.799133    1.681497   -0.395515
C      5.060117    3.489965    0.305696
C      0.450153   -5.238519    0.766569
C      3.157830   -2.514905   -0.952096
C      1.053779    3.135250   -0.541215
C      2.385823    3.234381   -0.257725
C     -3.100709   -1.632386   -0.250647
C     -3.536431   -0.432484    0.562157
C     -1.024952    1.873579   -0.891418
C     -0.937457   -2.894545    0.173732
C      0.425559    1.878913   -0.569332
C     -1.612348   -1.747864   -0.117001
C     -1.738089    0.630584   -0.662142
C      3.113031    2.117115    0.001669
C      0.431067   -2.893716    0.284517
C     -0.911904   -0.537432   -0.303707
C      1.177842    0.747935   -0.305576
C      0.475865   -0.547917   -0.180137
C      2.509613    0.834366   -0.016084
C      1.138182   -1.692013    0.095983
N     -2.858343    0.786927    0.252589
O      3.327572   -0.195513    0.276515
O      4.468374    2.208717    0.290778
O      1.154138   -4.022486    0.574355
O      2.489029   -1.871250    0.208328
I      0.859488    0.000000    0.000000
H     -3.033854    1.022042    2.310162
H     -2.691070    2.540632    1.446720
H     -1.355048    1.291376    1.693441
H     -4.845274    1.318911   -0.230899
H     -3.775916    2.703818    0.036326
H     -3.608069    1.730935   -1.470539
H      4.518681    4.187707    0.976646
H      6.095234    3.416359    0.720020
H      5.056738    3.899219   -0.722851
H     -0.149238   -5.231340    1.705806
H     -0.301489   -5.409598   -0.051058
H      1.155854   -6.096680    0.840681
H      4.205694   -2.583397   -0.626167
H      2.770138   -3.524936   -1.084651
H      3.098792   -1.857280   -1.827253
H      0.430094    4.010364   -0.754452
H      2.880684    4.213339   -0.236918
H     -3.615461   -2.530829    0.095659
H     -3.352057   -1.442414   -1.299713
H     -4.613237   -0.320870    0.434065
H     -3.341703   -0.652975    1.646235
H     -1.446945    2.654411   -0.166368
H     -1.197031    2.251130   -1.933454
H     -1.515275   -3.801068    0.314002
H     -2.249862    0.341411   -1.644189
H     -0.859488    0.000000    0.000000
