24

C     -1.191773   -0.480903   -0.940693
C     -1.197444   -1.274471    0.323674
C      1.627577    0.538606   -1.112104
C      1.705803   -0.965256    0.530438
C     -0.802943    0.971959   -0.643697
C      0.632455    1.020085   -0.119163
C      0.746722    0.065104    1.017581
C     -0.570307   -0.476343    1.459535
C     -1.652580    1.381009    0.505482
O     -2.463131    2.310600    0.420919
O      1.867117   -0.791062   -0.836922
O     -1.459274    0.639671    1.663365
H     -2.229765   -0.433527   -1.335653
H     -0.552059   -0.919741   -1.728726
H     -2.245021   -1.508409    0.667626
H     -0.706182   -2.259786    0.201805
H      1.346485    0.693596   -2.168875
H      2.583374    1.106763   -0.932379
H      1.363410   -2.007368    0.684524
H      2.699951   -0.876585    1.014136
H     -0.959028    1.621509   -1.503152
H      0.800924    2.072951    0.191558
H      1.207780    0.593912    1.889303
H     -0.552093   -1.022317    2.397426
