25

C     -1.744464    1.246325    0.173673
C     -3.000105   -1.203940   -0.904036
C      3.630949    0.890010    0.108532
C      2.585215    1.593148    0.692398
C      3.401086   -0.320650   -0.469031
C      1.316071    1.037499    0.672687
C      2.108419   -0.853113   -0.471852
C     -1.475716   -0.142462    0.635270
C      1.050838   -0.180846    0.098665
C     -0.279625   -0.769307    0.074143
N     -2.610078   -1.024733    0.454205
O     -0.425376   -1.913980   -0.473032
H     -2.791305    1.243698   -0.260277
H     -1.071023    1.612392   -0.627224
H     -1.824842    1.917065    1.047811
H     -3.972225   -0.722372   -1.154757
H     -3.143288   -2.287331   -1.094477
H     -2.187230   -0.863845   -1.580890
H      4.630473    1.327332    0.124181
H      2.780839    2.556164    1.148576
H      4.223653   -0.880053   -0.932879
H      0.542578    1.613697    1.135237
H      2.016285   -1.817312   -0.951708
H     -1.313636   -0.111649    1.750275
H     -2.447491   -1.945738    0.904916
