24

C      1.170252    0.047537   -1.201108
C      1.214769   -1.208133   -0.384087
C     -1.768607    0.733678   -0.771173
C     -1.677856   -1.167975    0.351376
C      0.663898    1.241018   -0.376064
C     -0.691453    0.954330    0.214493
C     -0.643086   -0.317558    1.004487
C      0.729701   -0.904785    1.016539
C      1.594919    1.283650    0.788425
O      2.273971    2.305212    1.016267
O     -2.597980   -0.201964   -0.110514
O      1.607841    0.114106    1.538814
H      2.241121    0.318228   -1.436001
H      0.655354   -0.038308   -2.154070
H      2.265338   -1.604355   -0.258403
H      0.651635   -2.008488   -0.869750
H     -2.395479    1.670513   -0.816408
H     -1.471103    0.375149   -1.751421
H     -1.339726   -1.717830   -0.529274
H     -2.133061   -1.845026    1.068868
H      0.711984    2.129301   -0.996571
H     -0.920058    1.777053    0.916119
H     -0.956324   -0.161829    2.068205
H      0.813951   -1.773523    1.671251
