26

C     -0.918429    1.647126    0.555676
C     -2.013825    0.974434   -0.218391
C     -0.989476   -1.030571    0.879943
C      1.517864    1.491992   -0.107063
C      1.421448   -1.261251    0.233014
C      0.347203    0.915959    0.285357
C      0.318518   -0.462027    0.450097
C     -2.020268   -0.512912   -0.126694
C      2.632311    0.729641   -0.331556
C      2.584642   -0.648597   -0.161483
N     -3.330936   -1.016366    0.290012
O      3.815553    1.301264   -0.726991
O      3.727694   -1.421735   -0.392732
H     -1.118130    1.572838    1.643477
H     -0.876797    2.702534    0.251702
H     -3.023775    1.392368    0.041388
H     -1.862372    1.254279   -1.301461
H     -0.999027   -2.116468    0.920568
H     -1.230873   -0.607198    1.875596
H      1.531838    2.572926   -0.233896
H      1.343761   -2.345325    0.378023
H     -1.772044   -0.995510   -1.089644
H     -3.390728   -2.043537    0.084904
H     -4.044087   -0.492998   -0.266970
H      4.663478    0.820787   -0.909119
H      3.686457   -2.421654   -0.267487
