67

C     -3.058516    0.707754   -3.632942
C     -1.422940   -1.181659   -3.139064
C      1.128004   -1.217942    2.608500
C      9.600365   -1.521552    0.597290
C     -7.959835   -1.530870   -0.208302
C     -6.017989    1.891998    2.733657
C      6.537954    1.449719   -0.406577
C     -0.514927    0.831472    0.660581
C      5.321302    1.360794    0.247045
C      7.507476    0.523571   -0.084372
C     -4.043471   -0.741987   -1.485457
C     -5.331785   -1.007096   -1.006785
C      3.785340    0.320142    1.807193
C     -0.671061    0.197507   -0.764628
C      0.855684    0.684093    1.150995
C      2.818940   -0.507902    1.003083
C      6.138724   -0.543095    1.476899
C     -3.791131    0.866987    0.182563
C     -1.876390    2.025848   -1.474338
C     -1.847736    0.217798   -2.960520
C      5.129394    0.331620    1.207153
C     -3.247436    0.216816   -0.886710
C      7.362340   -0.480664    0.840442
C     -5.872115   -0.353813    0.055285
C     -5.084527    0.622676    0.690170
C     -1.913923    0.678900   -1.433216
N     -1.827635    3.419349   -1.535560
N      1.477086   -0.535989    1.436523
O      8.324549   -1.403749    1.158034
O     -7.157010   -0.585166    0.536194
O     -5.574536    1.245834    1.712384
H     -3.818060    1.176392   -2.941588
H     -2.861443    1.569782   -4.364438
H     -3.609778   -0.051438   -4.275966
H     -0.349127   -1.288880   -3.541668
H     -1.386257   -1.839065   -2.234024
H     -2.007221   -1.625736   -3.994290
H      0.042733   -1.485690    2.700392
H      1.433876   -0.666759    3.559653
H      1.658543   -2.234322    2.649023
H      9.836935   -0.636865   -0.009927
H     10.379694   -1.683440    1.396404
H      9.537239   -2.381935   -0.129847
H     -7.946217   -1.063202   -1.247949
H     -9.024104   -1.522851    0.081478
H     -7.501427   -2.529865   -0.301060
H     -6.742296    2.690319    2.469048
H     -5.145176    2.346962    3.328771
H     -6.470611    1.211994    3.507971
H      6.671182    2.235792   -1.156069
H     -1.303253    0.541950    1.343782
H     -0.651542    1.951430    0.448501
H      4.526134    2.035082    0.057615
H      8.444992    0.602788   -0.626470
H     -3.674252   -1.251689   -2.328094
H     -5.904626   -1.771057   -1.500229
H      3.866395   -0.157845    2.826316
H      3.408527    1.337245    2.067882
H      0.208685    0.529656   -1.325721
H     -0.756232   -0.865183   -0.563173
H      0.869768    1.384215    2.107732
H      1.595782    1.273429    0.497304
H      2.881809   -0.247023   -0.108946
H      3.188598   -1.627266    0.943673
H      6.011780   -1.307730    2.225184
H     -3.220224    1.685015    0.682129
H     -0.965017    0.835933   -3.328923
