57

C      6.469136    3.290658   -0.799068
C      0.882457   -4.485868   -0.108908
C     -5.556129    2.737372    1.762470
C     -4.643026    3.390868    0.962115
C     -5.633478    1.371044    1.683178
C     -3.821388    2.683099    0.096562
C     -4.806247    0.664778    0.812428
C      3.119519    0.905498    1.720172
C      3.660484    0.237732   -0.462739
C     -1.254555   -1.547504   -2.061641
C      4.045515    1.922361    1.626743
C      4.594950    1.257929   -0.567124
C     -1.660957   -2.603346   -1.096804
C     -3.018133    0.549995   -0.912441
C      1.895048   -1.048357    0.818669
C      0.545247   -0.241444   -0.920023
C     -1.778048   -0.664557    0.771726
C     -3.887128    1.299612    0.004258
C      2.907519    0.033371    0.663172
C     -0.880495   -0.232946   -1.435037
C      4.800238    2.119440    0.485052
C     -0.484307   -1.497756    0.832892
C     -0.633465   -2.745854    0.015592
N     -1.754121    0.172838   -0.379412
N      0.585687   -0.638710    0.449766
O      5.734283    3.139463    0.381200
O      0.523520   -3.217377   -0.557498
H      5.822468    3.536544   -1.684190
H      7.058028    2.406280   -1.081228
H      7.189850    4.133550   -0.676026
H      0.117361   -5.251210   -0.317433
H      1.184542   -4.459627    0.963525
H      1.791501   -4.784931   -0.670890
H     -6.210572    3.273313    2.448796
H     -4.594166    4.468683    1.036278
H     -6.353331    0.861854    2.314818
H     -3.113889    3.238297   -0.518089
H     -4.892279   -0.405722    0.773907
H      2.546711    0.780620    2.628322
H      3.523959   -0.418007   -1.300488
H     -2.025936   -1.424902   -2.844115
H     -0.337880   -1.919965   -2.600644
H      4.188371    2.587758    2.470092
H      5.152847    1.354995   -1.493088
H     -2.690943   -2.531511   -0.724618
H     -1.617259   -3.586541   -1.653367
H     -3.544013   -0.360111   -1.287723
H     -2.822396    1.164564   -1.826921
H      1.933731   -1.450486    1.870370
H      2.273334   -1.890448    0.191263
H      0.948571    0.786848   -1.011518
H      1.191084   -0.908874   -1.533122
H     -2.669354   -1.293104    0.892647
H     -1.744337    0.001005    1.682828
H     -0.926534    0.541169   -2.228216
H     -0.341591   -1.751295    1.920236
H     -0.990007   -3.551088    0.722818
