58

C     -0.658583    2.710654    2.581176
C      2.304453   -3.236835   -0.343943
C     -2.519169   -2.363194    1.688083
C     -4.010598   -0.557840    1.049131
C      2.552724   -0.519561   -2.078223
C      1.218390    2.708098    0.987608
C      1.731353    2.467183   -0.351896
C      4.340779   -0.419008   -0.092830
C     -2.036463    1.137309    0.848231
C      0.004210   -1.337056   -0.875236
C     -2.978024   -1.165794   -1.714739
C     -0.063379    2.477521    1.207867
C      2.276792   -1.995445    0.019115
C      3.366431   -1.199766    0.643907
C     -0.975798    1.992362    0.175079
C      3.055762    0.262416    0.191015
C      1.187226   -1.029711   -0.072431
C     -1.981036   -0.295508   -1.823305
C      1.112794    1.284339   -1.073671
C     -1.637172   -0.294506    0.574914
C     -1.566374    0.684265   -2.815312
C     -2.730665   -1.288223    0.639315
C      1.940536    0.087646   -0.806138
C     -0.937162   -0.176476   -0.745778
C     -0.352481    1.168827   -0.907984
O     -1.773745    0.595315   -4.047292
O     -3.032707   -1.955343   -0.564193
O     -0.929051    1.679246   -2.129276
H     -1.635892    3.186787    2.549037
H     -0.683164    1.803645    3.184295
H      0.023407    3.485428    3.051539
H      3.193449   -3.831129   -0.207669
H      1.437021   -3.697515   -0.789433
H     -3.502978   -2.810753    1.989823
H     -2.044711   -1.985064    2.603259
H     -1.953183   -3.203012    1.223631
H     -4.522645   -0.100713    0.189037
H     -4.746099   -1.303058    1.471597
H     -3.826890    0.160449    1.873197
H      1.809416   -0.555842   -2.902443
H      2.995052   -1.489983   -1.916032
H      3.303234    0.256146   -2.413053
H      1.827898    3.069492    1.830923
H      2.849087    2.329009   -0.398151
H      1.587966    3.416921   -0.955385
H      5.209222   -0.048488    0.527613
H      4.645839   -0.591649   -1.133624
H     -2.182372    1.360661    1.917211
H     -3.039438    1.283574    0.364990
H     -0.554436   -2.247834   -0.569498
H      0.264928   -1.457138   -1.925612
H     -3.697336   -1.230858   -2.506189
H      3.490832   -1.385548    1.727186
H     -1.524141    2.897790   -0.195730
H      2.918815    0.927926    1.069813
H      1.022355   -0.624810    0.941176
H      1.370019    1.541573   -2.157825
H     -0.944296   -0.576925    1.393122
