58

C     -1.439849    4.006875    1.847622
C      2.464661   -3.033423   -1.744747
C     -4.191759   -0.552693   -0.331556
C     -2.843231   -1.401647   -2.155241
C      2.726060   -1.009429    0.916153
C      0.316649    3.270533    0.397880
C      1.103009    2.211790   -0.330621
C      4.533117   -0.384224   -0.960874
C     -2.112354    1.186081    0.199770
C      0.282608   -1.576984   -0.242288
C     -2.282974   -2.154841    1.381276
C     -0.682152    2.920928    1.136373
C      2.400122   -1.732075   -1.577119
C      3.499664   -0.774447   -1.909110
C     -1.089062    1.514558    1.277344
C      3.241283    0.433209   -0.945273
C      1.327127   -0.865559   -1.060008
C     -1.263834   -1.341677    1.627988
C      1.283564    1.002077    0.564690
C     -1.719115   -0.113000   -0.401543
C     -0.574677   -0.932458    2.865626
C     -2.813760   -1.068817   -0.678098
C      2.119990   -0.023277   -0.070434
C     -0.617310   -0.660462    0.480710
C      0.026387    0.506879    1.149675
O     -0.782622   -1.402496    4.010116
O     -2.670693   -2.301139    0.057695
O      0.313348    0.048251    2.474498
H     -1.178750    4.054464    2.906463
H     -2.514081    3.797639    1.661630
H     -1.235152    4.995476    1.393236
H      1.615306   -3.650550   -1.474918
H      3.339066   -3.500478   -2.142820
H     -4.366644   -0.422686    0.734323
H     -4.387788    0.441142   -0.819876
H     -4.988122   -1.219665   -0.722613
H     -3.880327   -1.438024   -2.556242
H     -2.265855   -2.312705   -2.403059
H     -2.346220   -0.566075   -2.689583
H      3.078986   -1.879741    0.329144
H      2.017761   -1.380535    1.656743
H      3.562005   -0.461472    1.413473
H      0.607445    4.325446    0.286132
H      2.115087    2.654225   -0.452263
H      0.584847    2.015378   -1.263854
H      4.838770   -0.955679   -0.087308
H      5.417278    0.143387   -1.426478
H     -2.065984    2.001065   -0.549178
H     -3.145526    1.205573    0.602596
H      0.774786   -2.354200    0.374237
H     -0.340911   -2.159881   -0.983221
H     -2.736848   -2.644954    2.232998
H      3.610622   -0.538533   -2.983764
H     -1.567976    1.453640    2.293117
H      3.271551    1.380845   -1.469465
H      0.919388   -0.281505   -1.885986
H      1.903618    1.418263    1.425429
H     -1.190532    0.107605   -1.379397
