57

C      7.306797    2.534390    0.289190
C     -2.522862   -3.753889   -1.573546
C     -5.999736    2.213330   -0.119055
C     -5.786117    1.520248    1.048261
C     -4.913315    2.574127   -0.880904
C     -4.502587    1.203129    1.429634
C     -3.631014    2.252761   -0.491943
C      3.572540   -0.466915   -0.320665
C      3.365503    1.800109   -0.881981
C     -0.834662   -2.145753    1.834739
C      4.876704   -0.240452    0.070473
C      4.646574    2.056004   -0.505096
C     -0.280077   -3.053651    0.752880
C     -2.027961    1.188154    1.140612
C      1.355118    0.338170   -1.238541
C      0.789296   -0.510059    0.935460
C     -1.609121   -0.367671   -0.648939
C     -3.389404    1.559383    0.672140
C      2.762553    0.543143   -0.812908
C     -0.578136   -0.688442    1.514533
C      5.417655    1.019543   -0.020078
C     -0.428459   -1.253746   -0.999799
C     -0.739095   -2.661160   -0.613014
N     -1.647683   -0.131074    0.754153
N      0.807736   -0.748295   -0.463008
O      6.744101    1.239561    0.379946
O     -2.144183   -2.794283   -0.628802
H      7.136840    2.911001   -0.742008
H      6.862301    3.202391    1.052285
H      8.406224    2.410217    0.437172
H     -3.628273   -3.814150   -1.540895
H     -2.106231   -4.766331   -1.310258
H     -2.184511   -3.467671   -2.589177
H     -7.013180    2.474657   -0.439115
H     -6.640837    1.235314    1.649668
H     -5.033764    3.129130   -1.822210
H     -4.307819    0.660867    2.339294
H     -2.809066    2.555040   -1.116194
H      3.142287   -1.459785   -0.254611
H      2.755169    2.600276   -1.261492
H     -1.912207   -2.287415    1.921611
H     -0.335316   -2.398827    2.776022
H      5.458540   -1.062260    0.445003
H      5.070785    3.054648   -0.578481
H      0.824965   -3.140760    0.836915
H     -0.680082   -4.066825    0.964600
H     -1.328038    1.923925    0.651279
H     -1.926603    1.309801    2.228977
H      1.290791    0.186985   -2.314147
H      0.815125    1.295538   -0.994189
H      1.216412    0.486645    1.218596
H      1.471615   -1.254768    1.428885
H     -1.429424    0.603528   -1.182101
H     -2.527188   -0.830721   -1.024423
H     -0.574874   -0.159674    2.512507
H     -0.339629   -1.216994   -2.112121
H     -0.284179   -3.340443   -1.342984
