54

C      7.649680   -0.773217   -0.080423
C     -6.344101    0.918410   -1.822819
C     -5.654919   -0.144293   -2.351800
C     -6.060398    1.373969   -0.572029
C     -4.672232   -0.740938   -1.595470
C     -5.066314    0.780650    0.209999
C      3.767580    0.979546    0.025394
C      3.107178   -0.407845   -1.749068
C     -0.779943   -1.427849    2.019575
C      5.030192    0.426582    0.009098
C      4.374402   -0.971475   -1.774641
C     -0.972600   -0.182607    2.800797
C     -3.329669   -0.936409    0.459565
C      1.407787    1.185414   -0.823844
C      0.268866   -0.846951   -0.187187
C     -1.817348    0.954269    0.516891
C     -4.382319   -0.276441   -0.319002
C      2.775977    0.581786   -0.846637
C     -0.968768   -1.303669    0.550313
C      5.347597   -0.573026   -0.910207
C     -0.346867    1.250150    0.845693
C     -0.049283    0.897152    2.297573
N     -2.031131   -0.419596    0.225396
N      0.539643    0.510401    0.039645
O      1.250183    0.414054    2.455809
O      6.604430   -1.138036   -0.941811
H      7.319190   -0.640362    0.970126
H      8.392446   -1.602867   -0.095005
H      8.134424    0.158735   -0.394623
H     -7.118147    1.390024   -2.415641
H     -5.852044   -0.535063   -3.343197
H     -6.602472    2.219458   -0.140099
H     -4.101386   -1.585070   -1.973875
H     -4.856897    1.164981    1.214484
H      3.539178    1.748237    0.739443
H      2.383570   -0.781023   -2.473704
H      0.223735   -1.849575    2.272513
H     -1.519206   -2.192550    2.389092
H      5.816704    0.728706    0.686593
H      4.632435   -1.752498   -2.488329
H     -0.633530   -0.399377    3.855829
H     -2.017124    0.159658    2.899657
H     -3.317898   -2.015928    0.147885
H     -3.639035   -0.950099    1.523857
H      1.044237    1.139160   -1.881345
H      1.509980    2.250278   -0.566429
H      0.091857   -1.059904   -1.279306
H      1.126072   -1.488159    0.098127
H     -2.472589    1.364721    1.312498
H     -2.036997    1.542199   -0.399859
H     -1.221007   -2.310677    0.148107
H     -0.205165    2.332756    0.650501
H     -0.105382    1.815985    2.941863
H      1.837425    1.018223    2.938668
