54

C      6.144473    2.732610   -1.066056
C     -4.126481    2.856944    3.113930
C     -4.198379    1.534266    3.492323
C     -3.846015    3.123299    1.789349
C     -3.996854    0.522596    2.577795
C     -3.643182    2.096417    0.869108
C      2.868568    0.235168    1.385525
C      3.494247   -0.452298   -0.809981
C     -1.987327   -2.361615   -1.585767
C      3.734759    1.312108    1.355244
C      4.367343    0.624029   -0.854267
C     -0.645366   -2.192501   -2.276128
C     -3.507295   -0.358897    0.304152
C      1.805257   -1.777419    0.420812
C     -0.504507   -2.494465    0.388069
C     -1.211303    0.224835   -0.104344
C     -3.715387    0.784823    1.248635
C      2.742838   -0.639162    0.324850
C     -1.883112   -2.103971   -0.105932
C      4.502546    1.506197    0.200212
C      0.086931   -0.414239   -0.635289
C     -0.093395   -0.830447   -2.071105
N     -2.148756   -0.769086    0.293291
N      0.444045   -1.438477    0.271470
O      1.014058   -0.616658   -2.859767
O      5.390153    2.571234    0.111859
H      5.462638    2.973808   -1.924038
H      6.888345    3.525545   -1.007692
H      6.705653    1.789102   -1.320102
H     -4.278129    3.680556    3.800070
H     -4.415180    1.299762    4.517373
H     -3.790590    4.164664    1.497239
H     -4.051421   -0.524020    2.866345
H     -3.426724    2.348627   -0.156820
H      2.292312    0.128161    2.309844
H      3.442912   -1.102889   -1.676395
H     -2.711130   -1.736051   -2.104144
H     -2.269307   -3.432950   -1.724445
H      3.858844    2.014624    2.164161
H      4.958525    0.752576   -1.774839
H     -0.018595   -3.031702   -1.995064
H     -0.859146   -2.301678   -3.365991
H     -4.183886   -1.164140    0.653271
H     -3.894538   -0.014224   -0.672843
H      1.894970   -2.287922    1.430610
H      2.171725   -2.554133   -0.286523
H     -0.639792   -2.677871    1.496127
H     -0.184328   -3.470911   -0.022336
H     -0.906173    0.808095    0.788861
H     -1.600036    0.957596   -0.844886
H     -2.610528   -2.769316    0.403304
H      0.835213    0.400268   -0.606311
H     -0.879739   -0.117710   -2.474603
H      1.120248   -1.333155   -3.534896
