53

C      2.029553    0.474896   -3.338262
C      2.980850   -0.415743    3.803769
C      3.864227    2.705580    0.509199
C     -2.814465    0.632442    1.572846
C     -2.758326   -0.680461    2.322553
C     -0.257035   -2.360950    0.144136
C      1.245517   -0.783042   -0.980599
C      1.510999   -1.118815    1.368543
C     -3.114059    1.422108   -0.692167
C     -2.007567   -0.840990   -1.753896
C      0.849265   -1.412760    0.178576
C     -2.652147    0.410747    0.114299
C     -2.093880   -0.732824   -0.369015
C     -1.613938   -1.801672    0.499986
C     -3.035000    1.330046   -2.082032
C     -2.468386    0.167480   -2.559415
C      2.299062    0.143689   -0.975939
C      2.536837   -0.214517    1.364259
C      2.950343    0.431715    0.202224
N     -1.714573   -1.517115    1.875568
O     -3.507244    2.362107   -2.876567
O     -2.343304   -0.021537   -3.944082
O      2.705852    0.784955   -2.146261
O      3.209406    0.097125    2.520201
O      3.994962    1.336006    0.269145
Cl     0.690157    0.000000    0.000000
O     -0.006898    0.376726   -0.000000
H      2.089145   -0.637608   -3.498732
H      2.457389    1.013573   -4.217920
H      0.987019    0.813141   -3.242966
H      2.776680    0.410451    4.537250
H      2.144841   -1.110911    3.898939
H      3.882372   -0.974552    4.182662
H      3.713922    3.290649   -0.434584
H      4.828727    3.057807    0.977154
H      3.067285    2.929243    1.246171
H     -3.788362    1.110353    1.758155
H     -2.028578    1.343409    1.895189
H     -3.755482   -1.165710    2.309510
H     -2.570005   -0.408911    3.393500
H     -0.338160   -2.811284   -0.873203
H     -0.040549   -3.186066    0.833714
H      0.800987   -0.951840   -1.959732
H      1.150636   -1.648429    2.237114
H     -3.557676    2.330933   -0.284805
H     -1.565588   -1.746161   -2.143305
H     -2.321936   -2.677818    0.307119
H     -1.620547   -2.345278    2.487192
H     -3.453489    2.300160   -3.868922
H     -2.655580    0.666379   -4.566570
H     -0.690157    0.000000    0.000000
H      0.817071   -0.185991    0.000000
H     -0.810173   -0.190736   -0.000000
