34

C      4.315261    1.418995    0.162277
C      3.028805    1.594710   -0.325249
C      4.003465   -0.925629    0.296748
C     -1.680472   -0.102469    0.631837
C     -3.766453    0.041473   -1.230775
C      0.494576   -1.530369   -0.025772
C     -4.893601    0.470165    2.191354
C      4.825866    0.190860    0.475481
C      2.225615    0.484939   -0.495448
C     -1.423138   -0.303551   -0.725045
C     -0.032016   -0.587052   -1.142161
C     -2.456470   -0.230679   -1.648262
C      2.720055   -0.763857   -0.181246
C     -2.984017    0.170656    1.042210
C     -4.002310    0.236210    0.123585
C      0.841651    0.638252   -1.012958
O      6.112014   -0.039643    0.966313
O     -2.185847   -0.424864   -2.977642
O      0.438709    1.788127   -1.329512
O      1.842333   -1.858852   -0.368268
O     -3.487529    0.426685    2.319182
O     -5.169401    0.509419    0.801566
H      4.974345    2.272092    0.301523
H      2.690452    2.572756   -0.561360
H      4.317377   -1.922600    0.509679
H     -0.898458   -0.097117    1.388384
H     -4.565188    0.085144   -1.953230
H     -0.146414   -2.412314   -0.025242
H      0.473055   -1.019645    0.912266
H     -5.335524   -0.422506    2.724460
H     -5.272121    1.429215    2.655700
H      0.083198   -1.026465   -2.119539
H      6.220999   -0.046364    1.985817
H     -1.308817   -0.615724   -3.366673
