49

C     -5.085498    0.251491   -0.229692
C     -3.267432    1.592658   -0.946481
C      6.288507    1.721464   -0.831523
C      5.297060    2.197042   -0.008004
C      6.137061    0.454416   -1.357297
C      4.173201    1.456257    0.303036
C      5.008403   -0.292972   -1.046607
C     -3.463161   -1.926938   -0.024497
C     -3.546338   -1.251143    1.321489
C     -1.678967   -0.798021   -1.234131
C     -1.614121    0.229377    1.060199
C      2.855599   -0.858787    1.630893
C      4.010255    0.192580   -0.214233
C     -3.155717   -0.806394   -1.026500
C     -3.093315    0.177692    0.990885
C     -0.908186    0.005540   -0.242421
C      2.811127   -0.581322    0.125728
C      1.554341    0.096244   -0.226696
N     -3.646425    0.360836   -0.319466
O      4.021954   -1.587716    1.906555
O      1.470718    1.228439   -0.767445
O      0.359833   -0.551505    0.053020
Br     0.000000    0.000000    0.000000
H     -5.440452   -0.758453   -0.005864
H     -5.489932    0.968195    0.530785
H     -5.559758    0.554282   -1.191718
H     -4.200314    2.182074   -1.188048
H     -2.691267    2.275541   -0.263690
H     -2.744315    1.460379   -1.895667
H      7.176669    2.317784   -1.071933
H      5.402461    3.193914    0.413863
H      6.914418    0.086412   -2.000677
H      3.382295    1.843222    0.963691
H      4.907941   -1.287583   -1.470245
H     -4.371736   -2.469926   -0.305328
H     -2.601492   -2.655903    0.012283
H     -2.784907   -1.667979    2.031851
H     -4.552391   -1.260370    1.760851
H     -1.339292   -1.871106   -1.252044
H     -1.494783   -0.429663   -2.281442
H     -1.321938    1.227470    1.482258
H     -1.265276   -0.526298    1.808122
H      1.985996   -1.456007    1.952344
H      2.864373    0.118660    2.150802
H     -3.726934   -0.974959   -1.951225
H     -3.560946    0.839440    1.759214
H     -0.705004    1.006043   -0.713975
H      2.888993   -1.564293   -0.399051
H      3.798687   -2.460115    2.309143
