55

C      8.759868    1.614297    0.605580
C      6.859134   -0.510858    0.436987
C     -0.762917    0.142446   -1.013790
C      5.892534   -1.483788    0.305685
C      0.529953   -0.103662   -1.503104
C      5.492341    0.913234   -0.932735
C     -0.500056   -1.628499    0.542773
C     -6.542264    0.403892   -1.665219
C      3.021270   -2.659926    0.559191
C      6.622458    0.699616   -0.207816
C     -1.269082   -0.621255    0.005391
C      4.747128   -1.262968   -0.430887
C      1.310469   -1.107287   -0.975690
C      3.577482   -2.134820   -0.718725
C      0.786636   -1.866370    0.049117
C      4.520783   -0.063926   -1.065070
C     -5.577856    0.782241   -0.567014
C     -6.278524    0.982402    0.756549
C     -5.233102    1.129671    1.814688
C     -3.847945    1.417936    1.291652
C      2.653182   -1.306491   -1.540910
C     -3.473317    0.533588    0.132689
O     -7.150545   -0.794807   -1.378747
O     -7.084354    2.119298    0.696731
O     -5.240314    0.003783    2.629950
O     -3.823976    2.740570    0.863552
O      7.554140    1.718971   -0.115699
O      1.614646   -2.863608    0.544112
O     -2.520328   -0.399701    0.494916
O      3.308831   -0.087011   -1.735852
O     -4.578952   -0.145120   -0.385608
H      9.266814    0.649220    0.453405
H      9.444854    2.405585    0.234455
H      8.553095    1.790419    1.695408
H      7.761860   -0.658715    1.006371
H     -1.287171    0.952818   -1.499117
H      6.089498   -2.428717    0.815972
H      0.908878    0.497407   -2.294421
H      5.316572    1.857326   -1.430661
H     -0.816506   -2.278429    1.344763
H     -7.274484    1.220431   -1.762484
H     -5.960855    0.323142   -2.596707
H      3.527716   -3.617540    0.846042
H      3.221088   -1.939139    1.389523
H      3.990371   -3.010866   -1.281669
H     -5.104993    1.767616   -0.823468
H     -6.874649    0.068232    0.949925
H     -5.520208    2.011968    2.458549
H     -3.143644    1.320268    2.138979
H      2.549682   -1.809652   -2.533942
H     -3.103225    1.172764   -0.686976
H     -7.063924   -1.416362   -2.144898
H     -7.866990    1.879730    0.154030
H     -6.158589   -0.309937    2.780627
H     -3.822513    3.390583    1.608838
