22

C     -0.871814   -1.487419    0.655045
C     -1.016471   -0.135145   -1.378192
C     -0.750667    0.908200    0.887536
C      1.149351   -0.380349   -0.111119
C      1.900660    0.673512   -0.780309
C     -0.338776   -0.202310   -0.061876
O     -0.393058    2.157263    0.457373
O      1.657903   -0.413564    1.228648
O      3.154825    0.492378   -0.944595
O      1.392918    1.847162   -1.257077
Na     0.000000    0.000000    0.000000
H     -0.739001   -1.357083    1.746296
H     -0.272853   -2.316375    0.232817
H     -1.917599   -1.621484    0.367028
H     -0.328278    0.062680   -2.237973
H     -1.830124    0.623764   -1.391911
H     -1.528853   -1.102501   -1.653892
H     -0.369258    0.677009    1.912877
H     -1.857626    0.892871    0.986007
H      1.428018   -1.381547   -0.545644
H     -1.055918    2.847315    0.687363
H      2.586619   -0.784377    1.201598
