22

C     -2.574726    1.313136    0.578034
C      2.548410    0.351088   -0.894394
C      1.153874    0.377033   -0.736849
C      2.684659   -1.099584    0.964224
C     -1.779017    0.320360   -0.261547
C      3.323605   -0.391709   -0.039391
C      1.326088   -1.071952    1.114652
C      0.524432   -0.321569    0.253463
C     -2.775767   -0.580389   -0.892715
Cl     5.060271   -0.435862   -0.220264
Cl     0.619620   -1.998756    2.410836
O     -2.846207   -1.791777   -0.607909
O     -3.645270   -0.050188   -1.821000
O     -0.820769   -0.350945    0.475838
Na     0.000000    0.000000    0.000000
H     -3.366711    0.760118    1.145246
H     -3.072117    2.010618   -0.117533
H     -1.855680    1.826428    1.233093
H      2.985842    0.925640   -1.697857
H      0.572750    0.964467   -1.417390
H      3.294698   -1.675190    1.625493
H     -1.357985    0.919031   -1.094030
