32

C     -3.317457    0.928001   -0.032978
C     -2.715557   -1.380225   -0.660448
C      1.069993    0.654469   -0.642170
C      1.102250   -0.659885    1.378391
C     -0.392015    0.656777   -0.717835
C     -0.266335   -1.150773    0.910052
C      3.283073    0.092602    0.330211
C     -2.475747   -0.268278    0.321559
C      1.800572    0.073951    0.285606
C     -1.030301    0.072062    0.498981
O      3.603940    0.350579   -2.493870
O      5.499545    0.895124   -0.860519
O      3.657332    2.453494   -0.911676
S      4.005289    0.984487   -1.003952
Na     0.000000    0.000000    0.000000
H     -3.031316    1.843715    0.486466
H     -4.385675    0.642934    0.198202
H     -3.274591    1.042135   -1.138302
H     -3.817219   -1.554634   -0.687802
H     -2.392769   -1.165797   -1.677601
H     -2.291045   -2.345631   -0.257843
H      1.614967    1.186575   -1.432631
H      0.932852    0.057062    2.212516
H      1.662440   -1.539485    1.726027
H     -0.812055    1.692331   -0.850096
H     -0.686794    0.071507   -1.622142
H     -0.718747   -1.688312    1.753889
H     -0.094179   -1.797594    0.026567
H      3.701311   -0.923038    0.381623
H      3.572172    0.603597    1.272113
H     -2.849172   -0.633954    1.313897
H     -0.954760    0.806205    1.325736
