35

C     -1.937560    0.958794   -1.588664
C     -3.139014    1.578564    0.425007
C      3.420507   -0.213879   -0.688164
C      3.568288   -0.096161    0.801942
C      2.088291   -0.929409   -0.943746
C     -3.025837   -0.825434   -0.214277
C      4.844554    0.590690    1.111088
C     -1.036458    0.336815    0.630537
C     -0.065301   -0.590274    0.051648
C     -2.268442    0.461903   -0.206568
N      1.063892   -0.103939   -0.358720
O     -3.300719   -1.248772    1.084771
O      5.203372    0.812533    2.295380
O      5.669815    1.002598    0.080520
O     -1.357797   -0.136711    1.926071
O     -0.271499   -1.945039   -0.086145
Na     0.000000    0.000000    0.000000
H     -2.827802    1.475480   -2.022937
H     -1.169010    1.777082   -1.477167
H     -1.608132    0.178850   -2.277731
H     -2.800418    2.549813    0.034745
H     -2.996519    1.557920    1.523548
H     -4.183471    1.390034    0.121657
H      3.291260    0.800701   -1.113835
H      4.263649   -0.723385   -1.149818
H      3.579086   -1.090980    1.301727
H      2.746509    0.475732    1.268711
H      1.932970   -1.078988   -2.043058
H      2.117915   -1.903757   -0.408897
H     -2.420920   -1.597487   -0.718210
H     -3.992804   -0.737388   -0.786889
H     -0.566229    1.332749    0.810923
H     -3.737910   -0.535038    1.585818
H     -1.141881   -1.097855    1.950821
H      0.057614   -2.425759   -0.920091
