43

C     -4.253785   -0.453874    0.769651
C     -3.891750   -0.904788   -1.591177
C      0.660839    3.415880    0.445781
C      2.415439    2.411199   -0.906416
C     -0.284752   -1.687282    1.380174
C      2.336936   -0.668939    0.202302
C     -1.597536   -1.016825    1.092818
C     -1.297622    0.315228    0.433949
C      0.024394    0.190024   -0.314965
C     -3.197805   -0.621029   -0.288234
C      1.189170    2.088301   -0.085046
C      1.098322   -0.004151    0.705919
N      4.883615   -1.338261   -1.351711
O      3.938767   -2.993808    0.417839
O      3.538095   -3.493497   -1.990103
O      0.599353   -0.686838    1.814358
O      2.134790   -1.609170   -0.784637
O     -2.333939   -1.650565    0.098576
O     -2.373230    0.484082   -0.418350
O      0.275824    1.428335   -0.875497
O      1.459026    1.313344    1.023156
S      3.603731   -2.432102   -0.945805
Li     0.000000    0.000000    0.000000
H     -4.560997   -1.446411    1.183084
H     -5.198188   -0.006442    0.374977
H     -3.889307    0.122836    1.657009
H     -4.732435   -1.620788   -1.434283
H     -4.379568    0.052351   -1.905073
H     -3.185545   -1.221551   -2.372170
H     -0.356911    3.330656    0.856912
H      1.321692    3.665283    1.314489
H      0.783359    4.230248   -0.280714
H      2.332799    3.435481   -1.350858
H      2.532241    1.730442   -1.784837
H      3.318425    2.439649   -0.265693
H     -0.461003   -2.428062    2.195867
H      0.110160   -2.156045    0.467803
H      3.113841    0.040813   -0.161042
H      2.787972   -1.210368    1.072607
H     -2.156890   -0.900048    2.040348
H     -1.245303    1.132881    1.184220
H     -0.069467   -0.627283   -1.043431
H      5.007247   -0.648907   -0.581799
