21

C     -0.513264    0.869979   -1.069914
C     -0.367111   -0.411938   -0.342870
C     -0.681541    2.062997   -0.213070
C      0.792920   -0.531024    0.588286
C     -1.605295   -0.640430    0.449655
C      2.103946   -0.379253   -0.008656
O     -0.714639    2.028498    1.024795
O     -0.815448    3.331082   -0.797532
O      0.698552   -1.789406    1.185061
O     -1.580010   -0.751068    1.701911
O     -2.855393   -0.743470   -0.154113
O      2.928090   -1.323921    0.077944
O      2.556233    0.743575   -0.689951
K      0.000000    0.000000    0.000000
H      0.267289    1.036250   -1.852383
H     -1.473394    0.787819   -1.662921
H     -0.316967   -1.227553   -1.109313
H      0.660006    0.206260    1.423802
H      1.289014   -2.451090    0.777864
H     -3.528364   -1.393595    0.240278
H      3.155375    0.576291   -1.514122
