31

C     -1.215159   -1.479094   -0.975360
C     -1.013730    0.865719   -1.714521
C     -0.925992    1.601962    1.041862
C      0.496655    1.380820    0.528388
C     -1.334211   -0.719785    1.620770
C      1.544601   -0.511154   -0.752160
C     -1.710496    0.375619    0.650023
C      0.135502   -0.890759    1.294403
C     -0.916986   -0.082757   -0.574204
C      0.448319   -0.052789    0.109287
O      0.827509   -1.624788    1.974450
O      3.336727   -1.214482    1.365175
O      4.181059   -0.768883   -1.085577
O      3.408322    1.117427    0.204070
S      3.156329   -0.350936   -0.039703
Na     0.000000    0.000000    0.000000
H     -0.870230   -1.626943   -2.017649
H     -2.290224   -1.748148   -0.911680
H     -0.617835   -2.182582   -0.328108
H     -0.952907    1.924098   -1.439718
H     -2.001411    0.713724   -2.195049
H     -0.250382    0.615452   -2.455893
H     -0.855540    1.598891    2.158005
H     -1.361985    2.534124    0.695893
H      0.747833    2.072466   -0.287538
H      1.244601    1.570852    1.337684
H     -1.902063   -1.622978    1.334874
H     -1.484581   -0.403797    2.657251
H      1.385538   -1.607107   -0.961692
H      1.545220    0.001966   -1.711821
H     -2.754484    0.513860    0.478534
