19

C      2.563063   -0.011055    0.086859
C      1.963140    1.033927   -0.587339
C      1.788207   -0.946463    0.727444
C      0.588777    1.146181   -0.622738
C      0.413031   -0.827170    0.687408
C     -0.190025    0.204755    0.021934
C     -1.661106    0.385039   -0.055731
C     -2.404606   -0.752998    0.519884
O     -2.088090    0.698446   -1.342527
O     -3.019620   -1.519855   -0.260913
O     -2.419340   -0.964206    1.890075
Na     0.000000    0.000000    0.000000
H      3.641142   -0.105061    0.118535
H      2.576811    1.769565   -1.091225
H      2.241895   -1.760987    1.253375
H      0.129236    1.965781   -1.151836
H     -0.218125   -1.554941    1.186586
H     -1.892102    1.294945    0.568209
H     -2.012289   -0.055903   -1.948000
