26

C     -3.112927    1.077859    0.224761
C     -2.819043   -0.259632   -0.029664
C      0.958907   -1.489077   -0.986149
C      0.048092   -2.502494   -0.342629
C     -0.753529    1.543168    0.196863
C     -2.074953    1.981015    0.338094
C     -0.466266    0.218789   -0.054891
C     -1.507254   -0.676666   -0.166697
C      1.642341   -0.365668    1.067732
C      2.734746    1.117442   -0.187106
C      0.930288   -0.197329   -0.195762
F     -2.377100    3.276580    0.585378
N      2.671470    0.405825    1.032969
N      1.738844    0.780515   -0.904667
O      1.354266   -1.177043    2.169326
O      3.702732    2.040673   -0.582109
O     -1.278695   -2.040784   -0.422820
Na     0.000000    0.000000    0.000000
H     -4.163931    1.385585    0.329798
H     -3.634921   -0.989580   -0.122338
H      0.537309   -1.260314   -1.984582
H      1.985252   -1.852071   -1.126766
H      0.306017   -2.694427    0.722263
H      0.130045   -3.473225   -0.870375
H      0.014496    2.308301    0.298150
H      3.433814    2.842558   -1.147982
