43

C     -3.409078    0.597036   -1.964309
C     -4.381871    0.275337    0.304813
C      0.227887   -3.327829    0.690380
C      2.442695   -2.663094   -0.071162
C     -0.278572    1.856085    1.057783
C      2.367531    0.484785    0.102441
C     -1.591736    1.134470    0.944671
C     -1.269162   -0.289268    0.509606
C      0.044776   -0.231316   -0.240010
C     -3.119711    0.448206   -0.491630
C      1.070584   -2.136908    0.332628
C      1.121389    0.025826    0.808363
N      4.010772    2.570533   -0.919664
O      3.207963    3.233001    1.542622
O      5.455213    2.281503    1.278874
O      0.636599    0.986563    1.672704
O      3.419579    0.683345    0.981831
O     -2.378560    1.562857   -0.106462
O     -2.331532   -0.668378   -0.284134
O      0.440936   -1.477010   -0.712557
O      1.232570   -1.234102    1.367689
S      4.047460    2.235679    0.783640
K      0.000000    0.000000    0.000000
H     -2.434715    0.829568   -2.453938
H     -4.115859    1.436469   -2.137262
H     -3.770006   -0.360617   -2.409228
H     -4.136111   -0.022641    1.336950
H     -4.959718   -0.542097   -0.154795
H     -4.971599    1.223412    0.317312
H      0.393549   -4.092054   -0.110969
H     -0.857987   -3.125673    0.683572
H      0.542116   -3.822937    1.637171
H      2.550451   -3.750773    0.169569
H      2.608452   -2.588079   -1.167664
H      3.248234   -2.161379    0.517574
H     -0.420639    2.694002    1.770670
H      0.094719    2.260314    0.106414
H      2.620387   -0.205921   -0.720675
H      2.112449    1.464415   -0.375895
H     -2.088546    1.177423    1.922949
H     -1.153700   -0.870923    1.433242
H      0.059987    0.552010   -1.010470
H      3.712808    3.558160   -1.112654
