46

C     -1.139787    0.085770    0.631983
C     -0.606388    1.448069    0.367848
C     -2.382178    0.095577    1.489571
C      0.603352    1.475345   -0.471966
C      5.593611   -1.272533    1.172915
C      6.507835   -0.397081   -0.808692
C      4.353440   -0.687595    0.859639
C      5.299997    0.172307   -1.113048
C     -6.136277    0.637691    0.257215
C      6.676735   -1.141869    0.360214
C      4.185812    0.037503   -0.276135
C     -5.194494    0.744530   -0.916962
C     -3.462667    0.878718    0.808399
C      1.793085    0.789483    0.055367
C     -3.831205    0.312262   -0.515872
C      7.940975   -1.750335    0.699934
C     -4.903941   -1.361279   -1.604439
N      3.000310    0.667430   -0.675932
N     -5.600031   -0.300390   -1.832568
N     -3.991175   -1.124298   -0.541453
O      1.728401    0.296971    1.195442
O      8.050241   -2.476420    1.870362
O      8.933623   -1.627944   -0.050108
O     -5.082817   -2.541065   -2.344473
S     -5.042623    0.745222    1.703071
Na     0.000000    0.000000    0.000000
H     -1.381727   -0.419996   -0.329385
H     -0.382166   -0.521019    1.153633
H     -0.519755    2.020996    1.318493
H     -1.401628    2.010440   -0.211063
H     -2.698802   -0.931946    1.655546
H     -2.128550    0.600349    2.444049
H      0.362287    1.002860   -1.453167
H      0.866316    2.546925   -0.708490
H      5.677964   -1.841010    2.089552
H      7.364288   -0.288947   -1.459472
H      3.534358   -0.830631    1.538674
H      5.178545    0.749654   -2.023805
H     -6.774217    1.562234    0.238537
H     -6.756140   -0.256252    0.258095
H     -5.227369    1.747074   -1.391861
H     -3.247963    1.939366    0.694157
H     -3.139248    0.650631   -1.325048
H      2.938633    1.128971   -1.642239
H     -3.565091   -1.839220    0.049740
H     -5.993567   -2.736546   -2.781918
