31

C     -3.905294    0.564840    1.240605
C      5.362532   -0.819172    0.049003
C     -1.403449    1.438127   -1.154994
C     -0.050330    1.561667   -1.391722
C      1.142503   -1.123771    0.720294
C      2.521591   -1.025692    0.502127
C     -1.076947   -0.364617    0.309831
C      2.200595    0.786815   -0.971339
C     -3.400591    0.462810   -0.147008
C     -1.946978    0.488884   -0.312764
C      0.290129   -0.252832    0.081478
C      0.828020    0.693634   -0.757883
C      3.047610   -0.080706   -0.334828
C     -3.892969   -0.834858   -0.721849
O     -3.922927   -1.039372   -1.964092
O     -4.339124   -1.872448    0.086660
O      4.399848    0.005022   -0.540073
Na     0.000000    0.000000    0.000000
H     -3.289354    0.086460    2.011736
H     -4.004191    1.633362    1.529172
H     -4.926800    0.133129    1.312975
H      6.372639   -0.433481   -0.196851
H      5.252704   -0.717972    1.153909
H      5.281421   -1.880426   -0.262138
H     -2.048504    2.153748   -1.685377
H      0.383958    2.301674   -2.049345
H      0.723522   -1.866682    1.378805
H      3.186696   -1.707407    1.002347
H     -1.487577   -1.105033    0.965454
H      2.573256    1.559052   -1.649620
H     -3.871987    1.255247   -0.758565
