56

C     -1.445252   -3.712666    1.663132
C     -1.062370   -3.656108   -0.738906
C     -5.464778   -0.330278    1.220090
C     -5.225062   -1.672429    1.360206
C     -4.461057    0.512540    0.838933
C     -3.970112   -2.232086    1.126297
C     -1.883001    2.942403    0.956611
C     -1.781011    2.524914   -1.344827
C     -1.743638    4.299349    0.738129
C     -1.639342    3.891529   -1.589761
C      1.275249   -0.793347   -0.682390
C      0.286602   -0.049848   -0.297932
C      3.643108   -0.455926    0.049478
C      4.909367    1.628170   -0.532716
C     -0.963650   -2.837303    0.514384
C     -1.905276    2.027050   -0.069108
C     -1.621150    4.778022   -0.540417
C      2.615655   -0.221706   -1.042644
C      4.978031    0.132797   -0.313544
C     -3.188649   -0.034277    0.598405
C     -2.947347   -1.379711    0.739764
C     -1.061869   -0.385635    0.094390
C      6.291865    2.081253   -0.882720
C     -2.040064    0.597092    0.200993
F     -1.483732    6.116464   -0.796730
N     -1.626543   -1.557438    0.425072
O      3.061070   -0.867724   -2.199570
O      5.902883   -0.100412    0.695912
O      6.545835    3.300140   -1.095047
O      7.355611    1.196206   -0.991249
Na     0.000000    0.000000    0.000000
H     -0.525676   -4.201127    2.158325
H     -2.003689   -4.581970    1.305352
H     -1.881503   -3.138826    2.494363
H     -1.133868   -2.978316   -1.632888
H     -1.948440   -4.313140   -0.772193
H     -0.184967   -4.332296   -0.865822
H     -6.469191    0.075748    1.411717
H     -6.017875   -2.319162    1.659089
H     -4.589704    1.568662    0.714563
H     -3.811227   -3.277482    1.225056
H     -1.981930    2.559371    1.981207
H     -1.796723    1.813884   -2.154684
H     -1.729942    5.003362    1.556132
H     -1.545806    4.251237   -2.591624
H      1.173621   -1.839026   -0.796992
H      0.570935    1.039200   -0.263814
H      3.781018   -1.554963    0.144950
H      3.276646   -0.098301    1.035440
H      4.653089    2.174726    0.413820
H      4.272133    1.939415   -1.364579
H      0.108604   -2.619170    0.802463
H      2.561827    0.845898   -1.252041
H      5.321815   -0.301276   -1.261497
H      2.713640   -0.403200   -2.995291
H      5.835838   -1.054284    0.944710
