42

C     -1.450598   -1.692514    0.433263
C     -0.200362   -0.942312    0.358148
C     -2.704023   -1.021366    0.747422
C     -0.093821   -0.026415   -0.813932
C      5.821375   -1.016178   -0.462817
C      5.401346    1.321304   -0.287754
C      4.465260   -1.273113   -0.586004
C      4.039947    1.044398   -0.413094
C     -3.127732    0.098985   -0.127193
C      1.307097    0.637939   -0.651533
C     -4.674462    1.016929    1.685635
C      6.294439    0.269598   -0.314329
C      3.574787   -0.238706   -0.560761
C     -5.654265   -0.177557   -0.331498
C     -4.546257    0.547166    0.303381
Cl     8.035985    0.540475   -0.161346
O     -6.832357    0.117240   -0.043777
O     -5.403554   -1.179038   -1.241066
O      2.213556   -0.448857   -0.680198
O     -4.778288    1.872687    0.571844
Na     0.000000    0.000000    0.000000
O     -0.002089    0.401454   -0.000000
H     -1.533316   -2.243856   -0.586513
H     -1.342540   -2.607433    1.117684
H      0.018805   -0.351687    1.300858
H      0.650203   -1.712076    0.314517
H     -3.565465   -1.774991    0.760876
H     -2.697091   -0.670110    1.848004
H      0.096951   -0.680554   -1.744701
H     -0.835976    0.694337   -1.022940
H      6.501787   -1.848600   -0.485812
H      5.741041    2.337266   -0.172952
H      4.109912   -2.286002   -0.701699
H      3.333257    1.854828   -0.393989
H     -2.504973    1.013036    0.096877
H     -3.105646   -0.118470   -1.183078
H      1.468824    1.371662   -1.439702
H      1.291004    1.090699    0.372017
H     -3.733338    1.226153    2.260994
H     -5.581512    0.740619    2.235166
H      0.790602   -0.199990    0.000000
H     -0.788514   -0.201464   -0.000000
