43

C     -6.389961   -1.354396   -0.679742
C     -2.848296    2.007309   -0.216611
C      8.462592    0.668991    0.932073
C     -6.169623    1.761715    0.714779
C      6.211904    0.086028   -0.585047
C      5.100692   -0.201796   -1.334138
C      4.922383   -0.352499    1.373716
C     -3.967776   -2.050341   -0.590475
C     -0.817949   -0.080897   -0.256066
C     -4.941158   -1.044225   -0.571183
C     -3.232302    0.575429   -0.347895
C      6.139354    0.014939    0.781124
C      3.878068   -0.570130   -0.760766
C      3.819562   -0.637515    0.613154
C     -2.260037   -0.417828   -0.366276
C     -4.575884    0.280240   -0.449158
C      1.835158   -1.171543   -0.183209
N     -2.679982   -1.688017   -0.487388
N      2.660219   -0.898987   -1.219239
N      2.574982   -1.002386    0.923841
O     -0.165226   -2.282268    1.067292
O      7.248482    0.301211    1.556264
O     -5.527565    1.257173   -0.430811
S      0.105429   -1.653870   -0.321351
K      0.000000    0.000000    0.000000
H     -6.946518   -0.599341   -1.249258
H     -6.791552   -1.499151    0.357440
H     -6.490066   -2.363064   -1.164056
H     -1.842006    2.220496   -0.616906
H     -2.829527    2.225590    0.877692
H     -3.607043    2.679454   -0.667792
H      8.339543    1.502828    0.208730
H      8.937595   -0.201179    0.430518
H      9.160896    1.004064    1.741149
H     -5.541445    2.540653    1.205177
H     -7.152946    2.164459    0.381138
H     -6.374983    0.997159    1.473525
H      7.165621    0.372841   -1.018720
H      5.173473   -0.141483   -2.406885
H      4.864797   -0.408541    2.447361
H     -4.287587   -3.080808   -0.687505
H     -0.478436    0.622449   -1.031101
H     -0.682882    0.417238    0.722728
