42

C      4.529905    1.521798    1.185360
C      3.456897    2.066137    0.669898
C      2.167837    1.513495    0.306597
C     -2.241737   -2.283139   -1.050103
C     -2.490790   -0.807138   -1.267335
C      1.930117    0.093334    0.570431
C     -2.925663   -0.099814    0.008751
C     -2.692752    1.373848   -0.278992
C     -1.194723    1.565451   -0.191123
C     -0.570255    0.479427   -1.035107
N      2.699153   -0.646242    1.255053
O     -3.379312   -2.788570   -0.414416
O     -4.245193   -0.325062    0.319310
O     -3.389034    2.197718    0.584832
O     -0.835224    2.847781   -0.615550
O      5.048678   -2.979675    1.849222
O      3.159043   -4.498128    0.999619
O      4.022748   -2.783000   -0.497717
O     -1.450867   -0.148601   -1.891553
O      2.454866   -1.993325    1.493855
S      0.438431   -0.676439   -0.099141
S      3.638529   -3.083096    0.925740
K      0.000000    0.000000    0.000000
O     -0.001719    0.373731   -0.000000
H      4.568033    0.470379    1.422092
H      5.438970    2.146857    1.392175
H      3.572951    3.173972    0.478419
H      1.359162    2.120202    0.830074
H      1.990475    1.727292   -0.793428
H     -2.232406   -2.753745   -2.067763
H     -1.335921   -2.492727   -0.472695
H     -3.363027   -0.738947   -1.950627
H     -2.306770   -0.422831    0.870572
H     -2.986050    1.557911   -1.319083
H     -0.924798    1.436259    0.891033
H      0.151503    1.026811   -1.717314
H     -3.224417   -3.670573   -0.013852
H     -4.654614    0.552065    0.549142
H     -3.375548    1.899762    1.509983
H     -0.808199    3.420555    0.175359
H      0.810770   -0.186292    0.000000
H     -0.809051   -0.187439   -0.000000
