55

C     -2.290494   -4.413166   -2.762197
C      1.265880   -0.073853    1.862212
C     -3.153665   -3.264545   -2.319556
C     -5.144232    2.797157    1.961081
C     -4.062041    3.350025    1.294826
C     -5.400284    1.449012    1.824731
C      5.293882    2.158530   -0.692386
C     -3.227856    2.611046    0.500543
C     -4.562366    0.699986    1.024879
C      4.956956    2.247327    0.781455
C     -2.645208    0.393136   -0.481182
C     -1.485775   -0.172710    0.329843
C      4.132966    1.450835   -1.241529
C      1.635496   -0.909252    0.661598
C     -3.499925    1.264564    0.376267
C     -0.581173   -1.070565   -0.448024
C      4.326035    0.892943    0.987887
C      2.361662   -0.116321   -0.370557
C      5.376330   -0.156134    1.012658
C     -1.421315   -2.227616   -0.925898
N      0.534933   -1.611864    0.149585
N      3.509747    0.661884   -0.155047
O      1.853968   -0.189301   -1.517750
O      5.523106   -0.965156    0.066022
O      6.227213   -0.258132    2.110005
O     -1.227269   -3.342707   -0.389349
O     -2.376074   -2.148504   -1.904042
Na     0.000000    0.000000    0.000000
H     -1.203973   -4.167592   -2.810554
H     -2.355059   -5.277564   -2.043226
H     -2.668008   -4.803117   -3.729711
H      0.296601   -0.465718    2.238740
H      1.170157    0.991530    1.690937
H      1.955192   -0.305961    2.742093
H     -3.695965   -2.905440   -3.251540
H     -3.913646   -3.584094   -1.613677
H     -5.745971    3.450323    2.567836
H     -3.854300    4.401567    1.400377
H     -6.241999    0.983728    2.335645
H      6.209702    1.546354   -0.770165
H      5.509855    3.140546   -1.135928
H     -2.373157    3.002745   -0.038687
H     -4.795569   -0.373668    0.934344
H      4.187409    3.031081    0.901215
H      5.852614    2.413223    1.413583
H     -2.280579    1.002867   -1.326538
H     -3.294938   -0.417600   -0.830122
H     -1.936121   -0.608868    1.214168
H     -0.944683    0.762071    0.682316
H      4.353258    0.770366   -2.086135
H      3.337097    2.172934   -1.604787
H      2.378593   -1.658251    1.022050
H     -0.401361   -0.523952   -1.428366
H      3.785717    0.972092    1.939331
H      0.748637   -2.606223   -0.149277
