22

C     -2.072464   -0.081076   -0.932834
C      2.901518   -0.442162   -0.249663
C      2.385630    0.834618   -0.393775
C      2.029070   -1.456616    0.068159
C      1.050572    1.084486   -0.226271
C      0.664076   -1.192138    0.237789
C      0.149819    0.070026    0.096080
C     -1.860863   -0.234585    1.471277
C     -1.278988    0.392604    0.262887
O     -1.901780   -1.471179    1.639393
O     -2.403132    0.536145    2.502936
O     -1.420458    1.771645    0.409438
K      0.000000    0.000000    0.000000
H     -1.427943   -0.661864   -1.641864
H     -2.519376    0.788492   -1.438525
H     -2.888467   -0.788124   -0.638678
H      3.960958   -0.600267   -0.389648
H      3.038982    1.652613   -0.642131
H      2.377841   -2.471231    0.192385
H      0.635448    2.090646   -0.338483
H      0.030613   -2.020386    0.483134
H     -1.451056    2.198354   -0.471607
