20

C     -1.671416    0.391661    0.305007
C     -1.155246   -0.612570   -0.664126
C      1.167938    0.251768   -0.707181
C      1.929250    0.401721    0.350741
C      0.308116   -0.919887   -0.489715
C      1.627628   -0.640085    1.315863
O     -1.545375    0.033870    1.621910
O     -1.341328   -0.132355   -1.958947
O      1.203641    1.093899   -1.834245
O      2.880888    1.434497    0.482015
O      2.198305   -0.767506    2.446795
O      0.643349   -1.408951    0.758316
Na     0.000000    0.000000    0.000000
H     -2.728702    0.644928    0.092731
H     -1.111261    1.363058    0.176072
H     -1.714069   -1.564122   -0.556797
H      0.625558   -1.697017   -1.237318
H     -2.020816   -0.793527    1.809861
H     -2.002914    0.580762   -1.946734
H      2.706454    2.339854    0.035753
