43

C     -4.059701   -0.564256    0.745129
C     -3.838120    1.677452   -0.203679
C      2.138018   -3.394763   -0.290065
C      2.815756   -1.865854    1.540691
C     -0.607054    0.561835   -1.874390
C      1.868181    1.194948   -0.295936
C     -1.523325   -0.524420   -1.318778
C     -1.195786   -0.581260    0.152841
C      0.252486   -0.574398    0.464796
C     -3.132531    0.340857   -0.028055
C      1.948932   -2.022217    0.318912
C      1.178641   -0.128514   -0.599098
N      2.976999    3.761046   -0.275529
O      1.576477    4.036038    1.925674
O      3.710962    2.862366    2.048569
O      0.657745   -0.027959   -1.865914
O      1.625490    1.633066    0.994377
O     -2.848371   -0.130752   -1.297678
O     -1.901948    0.511783    0.626622
O      0.633641   -1.901327    0.716290
O      2.200609   -1.089933   -0.661762
S      2.469780    3.060759    1.209317
Na     0.000000    0.000000    0.000000
H     -4.788280    0.058775    1.322975
H     -4.594534   -1.288733    0.113110
H     -3.498817   -1.153810    1.507736
H     -3.155152    2.442785   -0.622776
H     -4.361417    1.999210    0.709039
H     -4.628317    1.505105   -0.977079
H      3.107199   -3.471597   -0.832606
H      2.092726   -4.192047    0.476513
H      1.317191   -3.611563   -1.015094
H      2.619511   -0.847293    1.945759
H      3.880770   -2.070816    1.360314
H      2.423188   -2.568791    2.314486
H     -0.913410    0.912040   -2.864378
H     -0.571978    1.384281   -1.115793
H      1.554288    1.991586   -1.011827
H      2.973186    1.121545   -0.403298
H     -1.350031   -1.490600   -1.822943
H     -1.693950   -1.486184    0.565460
H      0.437438   -0.017459    1.417475
H      2.203509    3.949068   -0.936187
