12

C     -1.029848   -0.508316    0.242566
C      0.225359   -0.093124   -0.479789
C      1.379730    0.036863    0.439998
O      0.048527    1.130143   -1.148154
O      1.962643   -0.973446    0.867369
O      1.810257    1.286842    0.824448
Li     0.000000    0.000000    0.000000
H     -0.851365   -0.666527    1.319112
H     -1.784847    0.325730    0.172486
H     -1.524301   -1.380318   -0.232794
H      0.426388   -0.840232   -1.283484
H     -0.662544    1.682385   -0.721759
