12

C     -0.916693   -0.575612   -0.480579
C      0.103348   -0.094973    0.548529
C      1.357180    0.229009   -0.168352
O     -0.335985    1.021762    1.213761
O      1.632959    1.438885   -0.344931
O      2.197998   -0.754722   -0.629157
Li     0.000000    0.000000    0.000000
H     -1.552708    0.319163   -0.700433
H     -1.507141   -1.385226   -0.007272
H     -0.376947   -0.935343   -1.373072
H      0.268299   -0.886593    1.306366
H     -0.870311    1.623650    0.635138
