65

C      6.255419   -2.177174   -0.040321
C      8.037343   -0.718173    1.880716
C     -6.790954   -0.007564   -1.884908
C      5.639545   -0.815969   -0.039452
C      7.083596    0.363304    1.505359
C     -6.449476   -0.874158    3.162372
C     -7.475411   -1.017078    2.243642
C     -5.232584   -0.410229    2.723401
C     -7.285064   -0.699709    0.904862
C      2.773650    1.109445   -0.116040
C      2.808400    0.087089    1.973483
C      1.449977    0.795851   -0.246973
C      1.470775   -0.231252    1.843649
C     -0.949894   -0.209559   -2.680404
C     -3.733118    0.408044    0.887490
C     -0.754711    0.881015   -3.698391
C     -2.975724   -0.683230    0.146533
C     -1.500654    1.914781   -1.773231
C      4.894578    1.077188    1.153045
C      3.477634    0.763002    0.992489
C     -5.042233   -0.091252    1.376075
C      0.735844    0.127109    0.693026
C     -1.757778    0.472412   -1.595034
C     -6.064038   -0.231344    0.450126
C     -0.653920   -0.252737    0.644947
N     -0.816658    2.133659   -3.012741
N      5.753886   -0.075380    1.168174
N     -1.661741   -0.091925   -0.311050
O     -1.033011   -0.886166    1.750668
O     -5.826236    0.096398   -0.865372
H      7.329492   -2.219138   -0.208593
H      5.899333   -2.774974    0.837782
H      5.793873   -2.728064   -0.916345
H      8.800902   -0.830106    1.058434
H      8.659404   -0.448697    2.773765
H      7.594500   -1.689510    2.118967
H     -6.241449   -0.139080   -2.857131
H     -7.498110   -0.835296   -1.758962
H     -7.316874    0.967712   -1.930945
H      6.084243   -0.203872   -0.852681
H      4.535426   -0.966966   -0.216787
H      6.964020    1.016666    2.419990
H      7.501501    1.061191    0.737879
H     -6.615381   -1.124747    4.193762
H     -8.442849   -1.383299    2.578528
H     -4.396995   -0.284855    3.423082
H     -8.084010   -0.811664    0.194008
H      3.302668    1.663557   -0.929293
H      3.289263   -0.237627    2.908482
H      0.969584    1.104827   -1.140948
H      0.962968   -0.772312    2.643372
H     -1.599710   -1.032944   -3.106322
H      0.015086   -0.607909   -2.357983
H     -3.881409    1.298895    0.271621
H     -3.161409    0.743977    1.788503
H     -1.549224    0.846257   -4.487739
H      0.252371    0.700979   -4.177171
H     -2.771206   -1.559408    0.781356
H     -3.576248   -1.007637   -0.692398
H     -1.007654    2.407377   -0.908066
H     -2.477797    2.459861   -1.867653
H      5.115860    1.652005    2.098342
H      5.254530    1.743766    0.332463
H     -2.856688    0.333728   -1.922936
H     -1.225454    2.900913   -3.584871
