67

C      0.957998   -3.489178   -0.027130
C      1.507375   -2.006954    1.848394
C     -4.362288   -2.692562    1.170953
C     -4.008581   -2.947550   -1.266215
C     -5.600491   -0.047463   -1.450039
C     -1.216669    3.090658    0.675251
C     -2.125259    2.510357   -1.458507
C     -1.601806    4.427928    0.417981
C     -2.489426    3.787430   -1.717529
C      2.344126    0.971357    0.160401
C      1.116050    1.071655   -0.205321
C      4.541513    1.750537    0.965380
C      6.154077    0.303419   -0.273949
C     -3.712024    0.593933    0.021819
C      1.290906   -2.009798    0.339505
C     -3.542451   -2.311920    0.001769
C     -1.480556    2.124429   -0.271508
C     -2.216279    4.745410   -0.745562
C      3.486410    1.885170   -0.070518
C      5.315697    0.453984    0.989855
C      0.012589    0.134540    0.027384
C     -2.412701   -0.093244   -0.093829
C      6.949411   -0.906696   -0.310804
C     -1.279954    0.694939   -0.094880
C      0.035452   -1.227155    0.140425
C     -2.375825   -1.443141    0.023453
F     -2.608440    6.035762   -1.033961
N     -1.088223   -1.945902    0.144343
O      3.069216    3.207403   -0.194137
O      4.473208   -0.664610    1.092042
O      7.858875   -1.027736   -1.211944
O      6.855095   -1.991958    0.533591
O     -4.675376    0.278301   -0.730083
Na     0.000000    0.000000    0.000000
H      1.151337   -3.650166   -1.071165
H     -0.063072   -3.711375    0.303834
H      1.703936   -4.041540    0.600035
H      0.826162   -2.837358    2.202858
H      2.533484   -2.119801    2.138908
H      1.011056   -1.089564    2.217172
H     -4.671904   -3.771515    1.074611
H     -3.899936   -2.631617    2.171922
H     -5.408423   -2.228588    1.186714
H     -4.920839   -2.625457   -1.743871
H     -3.092529   -3.020940   -1.940565
H     -4.209781   -4.083751   -1.102677
H     -5.262572   -0.550899   -2.460230
H     -6.246061    0.826129   -1.820145
H     -6.289363   -0.834443   -1.059719
H     -0.725259    2.828990    1.596683
H     -2.337099    1.744994   -2.141800
H     -1.391391    5.207833    1.136209
H     -2.973585    4.060651   -2.616392
H      2.555409    0.076197    0.768478
H      0.885197    1.948934   -0.857895
H      4.064643    1.932821    1.971612
H      5.321915    2.561830    0.858697
H      5.572510    0.404034   -1.216923
H      6.904506    1.168443   -0.260648
H     -3.510475    1.682424    0.149027
H     -4.013562    0.453778    1.200305
H      2.134572   -1.762196   -0.271797
H     -2.784855   -3.381566    0.245139
H      4.003633    1.644706   -1.064974
H      5.950210    0.392069    1.869789
H      3.250779    3.577110   -1.103150
H      4.759709   -1.431509    0.574049
