58

C      5.389008   -0.251776   -1.302773
C      6.757606    0.033134    0.695730
C     -2.871381    3.619096   -1.388792
C     -6.027336   -0.968695    1.414625
C     -0.881513   -2.375664    0.040608
C     -7.234317   -1.855813    1.699965
C      0.566708   -2.184214    0.308785
C     -6.074719   -0.512588   -0.004575
C      4.428030    0.663831    0.850660
C     -2.964454   -1.038010   -0.147986
C     -1.579489    1.210178   -0.853483
C      1.151492    1.286204   -0.834432
C      2.331454   -0.713866    0.893906
C      5.342299   -0.285874    0.186057
C     -1.593922   -1.079493   -0.245986
C      2.990338    0.597638    0.563278
C     -0.906217    0.041944   -0.597674
C      0.587724   -0.089313   -0.679892
C      2.681914    1.106304   -0.803248
C     -2.944203    1.266186   -0.759432
C     -3.672994    0.113954   -0.395925
F     -8.362913   -1.115625    1.476371
N      0.980436   -0.804229    0.483940
O      3.195327    2.393636   -0.928382
O     -3.604563    2.466504   -1.024840
O     -5.019587    0.284247   -0.330211
H      4.759310   -1.028775   -1.785489
H      6.439379   -0.545341   -1.613261
H      5.263589    0.760549   -1.687336
H      6.922461   -0.372266    1.700038
H      7.526003   -0.357295   -0.022776
H      6.920340    1.129174    0.746972
H     -2.264429    4.020051   -0.537011
H     -3.601730    4.398628   -1.738577
H     -2.156841    3.397337   -2.217845
H     -5.107038   -1.469032    1.693275
H     -6.164240   -0.086628    2.088670
H     -1.052423   -3.003173   -0.858173
H     -1.394730   -2.912874    0.877152
H     -7.167517   -2.139292    2.784038
H     -7.211335   -2.753636    1.061427
H      0.834664   -2.800428    1.192952
H      1.148292   -2.652458   -0.539756
H     -7.018631    0.062972   -0.212553
H     -6.127521   -1.436696   -0.640798
H      4.777146    1.707494    0.599347
H      4.588285    0.578257    1.949607
H     -3.527326   -1.924240    0.114003
H     -1.010007    2.100192   -1.133568
H      0.838744    1.667279   -1.829643
H      0.898486    1.933165    0.003636
H      2.352069   -0.795036    2.020847
H      2.884380   -1.593620    0.525124
H      5.165082   -1.332489    0.540140
H      2.493098    1.339083    1.269823
H      0.845209   -0.696070   -1.587995
H      2.895022    0.442558   -1.636853
H      3.587484    2.554916   -1.814019
