34

C     -2.825529   -1.965720    0.207570
C     -1.032933   -0.303794    0.042175
C     -4.154035   -2.343418    0.206530
C     -0.562060    0.908123   -0.112201
C     -3.456100    0.255908   -0.139632
C      3.874842   -0.654331   -0.437371
C     -2.441650   -0.647401    0.033247
C      3.148426    0.565599    0.089504
C     -5.157672   -1.388689    0.026674
C     -4.807682   -0.080471   -0.147593
C      0.885881    1.185713   -0.092231
C      5.291788   -0.350297   -0.621118
C      3.640531    1.052277    1.374297
N      1.750301    0.257769    0.075974
O     -6.495495   -1.762536    0.024673
O     -5.773915    0.923476   -0.332985
O      1.326265    2.486782   -0.259922
O      6.122632   -0.480175    0.302651
O      5.801969    0.104783   -1.844419
O      4.831493    1.408213    1.548792
O      2.828094    1.162914    2.517651
H     -2.064998   -2.725924    0.349226
H     -0.276680   -1.084178    0.185495
H     -4.483750   -3.356556    0.339001
H     -1.231225    1.737062   -0.259063
H     -3.207094    1.294235   -0.279136
H      3.444782   -1.009416   -1.389152
H      3.787734   -1.503441    0.274175
H      3.337264    1.373488   -0.675370
H     -7.276512   -1.145646   -0.097225
H     -6.747164    0.780082   -0.353082
H      2.197589    2.831034    0.174576
H      6.626786    0.673059   -1.910393
H      3.098117    1.801476    3.274583
