45

C      4.906638    1.221177    0.821283
C     -1.340101    2.152479   -3.151090
C     -2.570123    2.235401   -2.560589
C      4.355186   -1.612810    0.505237
C     -2.524516   -1.603034    1.950318
C      3.774577   -2.830432    0.313718
C     -2.654056   -1.131179    0.545241
C      0.901676   -0.697167   -0.045291
C     -1.810727    0.670317    1.850139
C     -2.474955   -0.341819    2.737504
C      0.686169    0.103300   -1.053126
C     -0.309181    1.424078   -2.584645
C      2.208228   -1.284442    0.165539
C     -2.806031    1.573576   -1.354179
C      3.371883   -0.620087    0.414868
C     -0.577992    0.779663   -1.386252
C     -1.799487    0.838022   -0.756813
C      1.637478    0.431543   -2.148278
N      2.467480   -2.598449    0.109641
N      1.040321    1.180334   -2.995504
N     -2.052039    0.212365    0.526876
N     -4.095923    1.623630   -0.767635
O     -3.772721    0.057560    3.047900
O      2.946084   -0.022134   -2.207265
O     -5.228235    1.707890   -1.597369
O     -4.249897    1.596650    0.439873
O      3.617211    0.755120    0.566819
H      4.839654    2.143058    1.448589
H      5.444284    1.528215   -0.120549
H      5.564528    0.475500    1.329476
H     -1.130369    2.653786   -4.082016
H     -3.392397    2.794282   -2.978023
H      5.402756   -1.459125    0.694129
H     -3.440248   -2.207605    2.186030
H     -1.605222   -2.223745    2.029775
H      4.259025   -3.792890    0.322437
H     -3.686434   -1.116649    0.151559
H     -2.041581   -1.733702   -0.172677
H      0.117147   -0.950989    0.641204
H     -2.219229    1.666432    2.092550
H     -0.713084    0.633869    2.132769
H     -1.896786   -0.522916    3.675540
H      1.762114   -3.371267   -0.068720
H     -4.395859   -0.357132    2.396952
H      3.484754    0.019322   -3.065948
