42

C      4.432106   -1.107523    1.306659
C     -4.791503   -0.205805    1.634070
C     -3.542859    0.253985    2.005946
C     -2.835032   -1.541120   -2.545372
C      2.812174    3.296455   -0.801558
C     -4.916828   -0.774841    0.387592
C     -3.926823   -1.438711   -1.700270
C     -2.434614    0.162417    1.180837
C     -1.582080   -1.072364   -2.155084
C      2.710816    1.962312   -0.816368
C      1.980566   -0.875353   -0.337750
C      2.125088   -0.488603    1.105058
C      1.745304    4.094319   -0.968061
C     -3.811223   -0.869343   -0.443574
C     -2.574724   -0.412439   -0.071585
C     -1.451442   -0.506747   -0.914606
C      0.981745    0.016955   -1.066759
C      1.485167    1.380493   -1.006303
N      3.085881   -1.337464    1.784020
O     -0.268346   -0.026387   -0.457457
S      0.408416    2.798545   -1.175328
Cl     0.689037    0.000000    0.000000
H      4.725613   -0.039172    1.334546
H      4.540970   -1.425859    0.230634
H      5.186818   -1.659654    1.885708
H     -5.636968   -0.117257    2.308206
H     -3.444965    0.701290    2.983662
H     -2.954378   -1.992797   -3.525898
H      3.822172    3.805189   -0.645047
H     -5.895572   -1.133155    0.103233
H     -4.918838   -1.795275   -1.975747
H     -1.464266    0.516250    1.463201
H     -0.756354   -1.163803   -2.828479
H      3.626544    1.288273   -0.683741
H      1.677091   -1.925092   -0.391799
H      2.949668   -0.754016   -0.856916
H      2.469993    0.553883    1.216430
H      1.148841   -0.535429    1.649541
H      1.530795    5.105169   -1.001300
H      0.910046   -0.410224   -2.081719
H      2.851001   -2.327101    1.501289
H     -0.689037    0.000000    0.000000
