34

C      3.342095    1.233780   -0.359476
C      1.076570    0.336749   -0.230442
C      4.700604    1.080850   -0.219393
C      0.426228    1.418296   -0.623770
C      2.976159   -1.045494    0.334750
C     -3.158112   -1.331764    0.224059
C      2.494730    0.197673   -0.089970
C     -3.024834    0.063348   -0.415209
C      5.205855   -0.149221    0.202747
C      4.353781   -1.182142    0.470768
C     -1.026559    1.399880   -0.715275
C     -4.557483   -1.763081    0.287516
C     -3.824093    0.969646    0.475417
N     -1.649895    0.361833   -0.420173
O      6.579000   -0.266356    0.332543
O      4.827135   -2.425531    0.894665
O     -1.667504    2.554798   -1.133288
O     -5.112180   -2.179203   -0.758502
O     -5.216856   -1.692917    1.513436
O     -3.186925    1.881285    1.086371
O     -5.195457    0.813881    0.621313
H      2.945588    2.207337   -0.692278
H      0.443276   -0.536852    0.008889
H      5.338331    1.921551   -0.441286
H      1.004092    2.306332   -0.872317
H      2.323715   -1.867245    0.549429
H     -2.687594   -1.218273    1.236854
H     -2.494273   -2.021915   -0.337094
H     -3.502164    0.006093   -1.400033
H      7.062176   -1.078124    0.621975
H      5.798992   -2.572216    1.007579
H     -2.608472    2.553885   -1.515713
H     -6.244291   -1.632802    1.498099
H     -5.741635    1.655918    0.762067
