48

C     -2.784746   -2.740375    2.881480
C      0.376384    4.387143   -0.570724
C      1.688741    4.051455   -0.665164
C     -4.486494   -1.903897    0.476093
C      2.643063   -1.630190   -1.320252
C     -4.884438   -1.290961   -0.698310
C      1.713452   -0.511407   -1.801606
C     -1.499242   -0.022085   -0.305931
C      1.999717   -0.366254    0.548295
C      2.349528   -1.763309    0.137002
C     -1.404771    1.270110   -0.394557
C     -0.571933    3.385629   -0.488172
C     -2.827497   -0.648416   -0.212337
C      2.073945    2.728984   -0.679590
C     -3.207022   -1.511864    0.788996
C     -0.176563    2.050524   -0.503323
C      1.146192    1.693592   -0.600386
C      3.506109   -2.226120    0.926488
C     -2.491025    2.273419   -0.321140
N      4.602070   -2.597489    0.400489
N     -3.827753   -0.525666   -1.087558
N     -1.985866    3.442435   -0.376938
N      1.574726    0.354449   -0.662660
N      3.442027    2.393151   -0.739515
O      3.448816   -2.281331    2.330188
O     -3.835570    1.983876   -0.206964
O      4.350706    3.230634   -0.145403
O      3.827458    1.386367   -1.307018
O     -2.401782   -1.858463    1.854831
H     -3.859741   -2.555708    3.096974
H     -2.585732   -3.801347    2.638850
H     -2.221093   -2.455630    3.791012
H      0.040486    5.438122   -0.557507
H      2.442570    4.806367   -0.729339
H     -5.102051   -2.586297    1.050031
H      3.696088   -1.338582   -1.492859
H      2.434401   -2.589570   -1.817944
H     -5.809982   -1.367256   -1.227561
H      0.771535   -1.031358   -2.090650
H      2.146691   -0.088952   -2.699699
H     -0.655859   -0.676067   -0.284730
H      1.162572   -0.331191    1.273547
H      2.870956    0.171262    0.943216
H      1.470631   -2.423553    0.338308
H      4.858129   -2.639150   -0.586686
H     -3.838232    0.045279   -1.968686
H      4.282817   -2.015483    2.872884
H     -4.462420    2.685178    0.194524
