25

C     -1.973143    0.061493   -0.222822
C     -1.180071   -1.188887   -0.522823
C     -1.010077    0.889444    0.587715
C     -0.015402    1.635181   -0.249148
C      1.330481    0.955184   -0.084023
C      1.158867   -0.509752   -0.494211
C      0.043563   -1.080635    0.347045
N     -0.358449   -0.147571    1.400676
O     -0.387783    1.784433   -1.565516
O      1.571067    0.917871    1.307902
O      2.356055   -1.201357   -0.276333
O      0.417104   -2.293356    0.904290
H     -2.790864   -0.251061    0.477528
H     -2.354467    0.562344   -1.115836
H     -1.743070   -2.112202   -0.293306
H     -0.888304   -1.237964   -1.594625
H     -1.567189    1.592629    1.248858
H      0.118393    2.671172    0.168105
H      2.140941    1.449872   -0.616748
H      0.951933   -0.572735   -1.581766
H     -1.057441   -0.599894    1.997233
H     -0.206428    1.012583   -2.136034
H      2.354458    1.441052    1.563586
H      2.804737   -1.449178   -1.135041
H      0.285087   -2.328666    1.885293
