25

C     -0.503542   -1.612637   -0.993334
C     -1.615576   -0.589852   -1.022404
C      0.156241   -1.405598    0.342838
C      1.398201   -0.564495    0.230516
C      1.160231    0.763372   -0.407838
C     -0.203558    1.321457   -0.207106
C     -1.259762    0.322443    0.102957
N     -0.807757   -0.620044    1.127509
O      2.383422   -1.236687   -0.509610
O      2.136273    1.655260    0.087897
O     -0.135205    2.207344    0.893268
O     -2.400684    1.003160    0.519118
H     -0.879299   -2.657643   -1.021937
H      0.170445   -1.494535   -1.849717
H     -1.743979   -0.104030   -1.995114
H     -2.547415   -1.143238   -0.714081
H      0.416921   -2.345496    0.836906
H      1.781375   -0.405980    1.265591
H      1.335702    0.645685   -1.503103
H     -0.522200    1.934970   -1.069113
H     -1.633000   -1.253213    1.296901
H      3.246496   -0.812904   -0.250383
H      2.148394    1.603006    1.086157
H      0.434274    2.966224    0.679215
H     -2.515999    1.823432   -0.005762
