38

C     -3.347398   -3.021772   -1.043871
C     -1.427053    3.404926    0.450679
C     -2.779712    3.707239    0.350933
C      5.594159   -0.256439    0.456197
C      4.563374   -0.992713    0.133332
C     -1.000255    2.103611    0.473884
C     -3.681770    2.662711    0.285023
C      2.167228   -1.134842   -0.684264
C      1.021079   -1.254330    0.299315
C      5.439302    1.118064    0.364199
C      3.377874   -0.426301   -0.279431
C     -1.909126    1.035492    0.409905
C     -3.228515    1.331501    0.318610
C     -1.241456   -0.264316    0.624767
C     -1.967272   -1.484023    0.325317
Cl    -4.412955    0.024538    0.259825
N      0.061811   -0.274583    0.032432
O     -1.974681   -2.444304    1.202241
O     -2.681831   -1.765170   -0.828567
S      3.742637    1.285534   -0.216255
Cl     0.682932    0.000000    0.000000
H     -2.586456   -3.866150   -1.099122
H     -3.891533   -2.974498   -1.986980
H     -4.004359   -3.217197   -0.201125
H     -0.662096    4.192337    0.520165
H     -3.058095    4.745529    0.337004
H      6.607861   -0.674496    0.816526
H      4.604616   -2.140792    0.167840
H      0.055500    1.890793    0.575044
H     -4.706500    2.883827    0.198669
H      1.785397   -0.465455   -1.590218
H      2.323191   -2.083460   -1.196003
H      1.503363   -1.083429    1.328206
H      0.604247   -2.275112    0.329259
H      6.158177    1.943325    0.604500
H     -1.051907   -0.219093    1.773006
H      0.003155   -0.010953   -1.003537
H     -0.682932    0.000000    0.000000
