48

C     -1.997662    2.847731    0.664849
C      4.660685    2.541183   -0.190884
C      4.305698    3.462291   -1.135205
C      3.873537    1.446405    0.023206
C      3.153363    3.245582   -1.844670
C     -1.767739    0.127026   -1.653941
C     -2.327811    1.476799   -1.314268
C     -0.850213   -4.015779    0.736767
C      2.835569   -1.107018    0.102451
C     -3.249486    0.280301    1.583255
C      2.675896    1.182784   -0.686184
C     -2.131618   -0.685392   -0.411133
C      2.347609    2.112775   -1.619984
C     -2.062110    0.400597    0.716700
C     -1.650445   -2.998048    0.297964
C      0.518815   -3.785994    0.783141
C      2.374829   -2.327165    0.465935
C      1.999197   -0.062941   -0.345113
C     -1.173110   -1.740925   -0.107821
C      1.019258   -2.535328    0.386280
C      0.204634   -1.513200   -0.054277
Cl     0.958886    1.962301   -2.652500
N     -1.853980    1.609751    0.043472
O     -3.259431   -0.993653    2.193886
O     -2.994279   -3.257168    0.259713
O      1.371859   -4.702041    1.183986
O      3.133741   -3.256898    0.867312
O      0.727026   -0.344095   -0.396268
H     -2.879040    2.972835    1.320531
H     -2.138992    3.632827   -0.138816
H     -1.087699    3.194625    1.226843
H      5.556581    2.679361    0.376115
H      4.928345    4.340868   -1.308310
H      4.175439    0.768642    0.791892
H      2.875811    3.975026   -2.585369
H     -2.289590   -0.308494   -2.554375
H     -0.731956    0.095890   -1.858286
H     -1.876104    2.267460   -1.924391
H     -3.448467    1.491107   -1.357839
H     -1.216914   -4.979151    1.043468
H      3.904544   -0.929547    0.141467
H     -4.223753    0.381489    1.113588
H     -3.109079    0.992274    2.451527
H     -3.151011   -0.989674   -0.550989
H     -1.142561    0.158876    1.305447
H     -2.995815   -0.974015    3.138205
H     -3.685269   -2.643786   -0.031583
H      1.692810   -5.496497    1.504205
