50

C     -3.859719   -0.531438   -1.526058
C      4.244619    2.013209   -2.629526
C      4.197183    1.053471   -3.594398
C      3.633665    1.822136   -1.389179
C      3.532765   -0.106471   -3.310739
C     -2.512916    1.199301    0.813289
C     -3.451982    1.431026   -0.307671
C     -0.724085   -0.827441    3.828414
C      3.144263    0.314853    1.326502
C     -1.176766   -0.609421   -2.089348
C      2.960282    0.677305   -1.081033
C     -1.899269   -0.282646    0.393400
C      2.930513   -0.292906   -2.083523
C     -1.620697    0.200592   -0.941769
C     -1.504621   -0.752800    2.722338
C      0.622380   -0.566516    3.754163
C      2.597153    0.006749    2.540542
C      2.325566    0.374844    0.197313
C     -0.928686   -0.398913    1.473389
C      1.238869   -0.227319    2.574116
C      0.422329   -0.156303    1.437052
Cl     2.265128   -1.883511   -1.714155
N     -3.025294    0.607482   -1.372634
O     -1.322197    0.200918   -3.281322
O     -2.895530   -1.024713    2.789259
O      1.440423   -0.632707    4.884784
O      3.314362   -0.056109    3.594640
O      1.060504    0.142333    0.337460
Cl     0.685545    0.000000    0.000000
H     -3.396405   -1.512852   -1.314299
H     -4.755910   -0.456858   -0.853360
H     -4.309802   -0.621326   -2.563559
H      4.770629    2.920252   -2.869436
H      4.655264    1.158956   -4.573059
H      3.702806    2.608306   -0.653779
H      3.484234   -0.874480   -4.098112
H     -1.666262    1.893745    0.709885
H     -2.888159    1.097763    1.806392
H     -3.481633    2.496602   -0.652791
H     -4.504259    1.244077    0.034905
H     -1.164513   -1.104029    4.785126
H      4.208133    0.509496    1.237176
H     -0.034696   -0.653300   -2.083659
H     -1.645079   -1.541412   -2.320727
H     -2.713148   -0.993151    0.536383
H     -1.099544    1.192941   -0.917402
H     -1.918317    0.946836   -3.016349
H     -3.262030   -1.268225    3.685280
H      1.010450   -0.875567    5.776079
H     -0.685545    0.000000    0.000000
