29

C     -1.628149   -1.922861   -0.092664
C     -1.744634    1.529802    0.407141
C     -0.871078    0.625729   -1.707519
C     -0.314687   -0.653101    1.599505
C      0.308481    0.713188    1.775357
C      1.599748   -0.183892   -0.045150
C      2.154768   -0.255383   -1.421207
C     -0.911580   -0.720420    0.415623
C      0.677905    0.927226    0.273889
C     -0.727482    0.600098   -0.237773
O      3.022203   -1.378913   -1.505121
H     -1.938692   -2.554880    0.749467
H     -1.017331   -2.532030   -0.779293
H     -2.544600   -1.597798   -0.630046
H     -1.339846    2.525768    0.623233
H     -2.552272    1.679536   -0.355245
H     -2.243140    1.039115    1.261436
H     -0.147727    1.318814   -2.185602
H     -1.879795    1.104470   -1.936259
H     -0.938609   -0.369350   -2.199019
H     -0.260203   -1.424162    2.343304
H      1.230643    0.683377    2.353564
H     -0.442160    1.448362    2.100353
H      2.473268   -0.235195    0.676107
H      1.099440   -1.184974    0.134808
H      2.782916    0.612506   -1.705663
H      1.408461   -0.449942   -2.213606
H      1.012812    1.923896    0.068730
H      3.731338   -1.268984   -0.826226
