35

C      3.878375   -0.212130    0.657120
C      0.144181    1.055532   -2.010363
C      0.687244   -1.164031   -2.753930
C     -1.929329   -0.713799    1.189636
C     -2.799726    0.668883   -0.493286
C     -2.734667   -0.100450    2.129381
C     -3.606331    1.285342    0.439887
C     -1.087242   -0.989415   -1.163971
C      2.628444   -0.365887    1.494663
C     -1.933399   -0.354469   -0.141170
C     -3.591332    0.915146    1.767486
C      1.476258    0.030280    0.613175
C      0.207813   -0.361480   -1.485920
Cl    -4.610854    1.689412    2.965374
N      2.674808    0.443272    2.683078
O      0.731422    0.958866    0.982440
O      1.216044   -0.584363   -0.569170
H      4.673953   -0.855225    1.055191
H      4.208523    0.865823    0.680369
H      3.606781   -0.449460   -0.399131
H     -0.468156    1.011777   -2.955963
H      1.179551    1.299795   -2.363545
H     -0.242594    1.769882   -1.284430
H      1.652063   -0.788359   -3.084191
H     -0.144372   -1.024428   -3.473582
H      0.673316   -2.214273   -2.417962
H     -1.276166   -1.499290    1.507376
H     -2.851808    1.002914   -1.536123
H     -2.728636   -0.387882    3.182733
H     -4.287325    2.090294    0.161063
H     -1.696967   -1.152246   -2.113427
H     -0.846965   -2.060653   -0.867957
H      2.542239   -1.429247    1.805228
H      2.714421    1.452862    2.453860
H      1.940434    0.167007    3.346059
