37

C     -4.655159   -0.663984    0.454843
C      0.307384    1.824603   -0.641324
C     -0.033387    0.474615    1.374839
C      2.915040    0.208895   -1.182505
C      2.607376   -1.090495    0.762484
C      4.248937    0.366412   -0.896302
C      3.945744   -0.926290    1.039854
C      0.634891   -0.651072   -0.731630
C     -3.786628   -0.714447   -0.786844
C      2.073536   -0.515662   -0.367630
C      4.791222   -0.203728    0.229788
C     -2.363719   -0.709338   -0.290644
C     -0.191270    0.471622   -0.130560
Cl     6.503831   -0.002988    0.599675
N     -4.000463    0.542342   -1.501466
O     -1.901249   -1.676902    0.363865
O     -1.519901    0.354643   -0.536304
Cl     0.683770    0.000000    0.000000
H     -4.288265    0.226208    1.042452
H     -4.468863   -1.536518    1.088803
H     -5.720794   -0.495418    0.223983
H     -0.448172    2.615750   -0.454542
H      1.226931    2.146927   -0.109488
H      0.451722    1.801016   -1.741369
H     -0.764082    1.137423    1.868079
H      0.970552    0.838061    1.673433
H     -0.118736   -0.568521    1.787561
H      2.548019    0.693373   -2.102141
H      1.980242   -1.671842    1.434963
H      4.924766    0.941320   -1.539589
H      4.387555   -1.380188    1.940411
H      0.316038   -1.640596   -0.360182
H      0.565944   -0.595500   -1.837022
H     -4.004205   -1.584253   -1.410094
H     -3.324024    0.654484   -2.298511
H     -3.810812    1.330045   -0.845064
H     -0.683770    0.000000    0.000000
