65

C      6.891686    1.188722   -0.590492
C      8.228755   -0.713737    0.151888
C     -5.362268    4.446535   -0.282308
C     -5.064124    3.653092   -1.380939
C     -4.976128    4.041095    0.981515
C     -4.386673    2.474923   -1.184532
C     -4.293471    2.844614    1.142867
C     -4.431062   -3.923783    0.874619
C     -0.336132    1.455770   -0.533295
C     -1.542192    1.378560   -1.474934
C     -4.642770   -2.587932    1.109541
C      4.923647   -0.674122    0.749589
C      5.923977   -0.982112   -0.386186
C     -2.487114   -3.328364   -0.379999
C      1.593394    0.094460    0.269642
C     -3.982086    2.031520    0.058137
C     -3.340107   -4.284492    0.120483
C      0.272224    0.099058   -0.504312
C     -2.517763    0.340755   -0.946458
C     -2.676018   -1.972381   -0.158848
C     -3.769042   -1.613654    0.595484
C     -3.207557    0.799061    0.281055
C     -1.726091   -0.941287   -0.719160
C      3.687209    1.422892    0.297281
C     -3.125717   -5.740217   -0.131938
F     -2.067938   -5.892930   -1.002028
F     -4.253341   -6.266767   -0.764390
F     -2.833356   -6.441198    1.013667
N      4.505597    0.615220    0.632887
N      2.435290    1.092722   -0.310378
N     -4.017635   -0.234683    0.847915
N      7.047567   -0.165992   -0.335155
O      3.903658    2.845988    0.479422
O     -0.606618   -0.809568    0.037836
H      7.808461    1.595821   -1.119732
H      6.768997    1.837904    0.314389
H      6.063178    1.382044   -1.324786
H      8.302083   -1.787161   -0.138776
H      8.336335   -0.703787    1.259148
H      9.132005   -0.221350   -0.296027
H     -5.890104    5.362291   -0.484420
H     -5.351046    3.938331   -2.386757
H     -5.228082    4.702102    1.814104
H     -4.188013    1.886514   -2.065052
H     -4.025603    2.591829    2.157681
H     -5.099114   -4.694941    1.268616
H     -0.684476    1.772198    0.462936
H      0.299764    2.264413   -0.920466
H     -1.966611    2.361981   -1.623992
H     -1.147269    1.000909   -2.434156
H     -5.495526   -2.284848    1.694534
H      5.433373   -0.935521    1.734339
H      4.166663   -1.479028    0.656335
H      6.161170   -2.074782   -0.403218
H      5.394795   -0.795756   -1.366537
H     -1.612128   -3.605593   -0.979140
H      1.470940    0.118114    1.345549
H      2.057866   -0.899816    0.008222
H      0.503280   -0.208325   -1.540250
H     -3.266123    0.093120   -1.723425
H     -2.447789    1.048755    1.088462
H     -1.397208   -1.265553   -1.753075
H      2.133482    1.591337   -1.195624
H     -4.841287    0.009776    1.481268
H      4.840186    3.147257    0.601434
