28

C      3.539146   -0.857342    1.192982
C     -1.062286    0.250645    1.383114
C     -2.384220    0.702366    1.396155
C      0.854143   -0.825378    0.277967
C     -1.330129   -0.509182   -0.829476
C     -0.526328   -0.357180    0.272778
C      1.859387    0.208652   -0.185089
C     -3.169603    0.545578    0.297694
C     -2.658676   -0.058965   -0.826155
C      1.619583    0.673562   -1.554956
N      3.168848   -0.457370   -0.128228
O     -4.496643    1.005903    0.328584
O     -3.448647   -0.217347   -1.932821
O      2.471730    0.472542   -2.453340
O      0.460598    1.344530   -1.910900
H      4.645906   -0.985786    1.206576
H      3.095773   -1.832559    1.497362
H      3.253940   -0.052326    1.900690
H     -0.505935    0.414426    2.299209
H     -2.780263    1.181090    2.292555
H      1.196660   -1.125176    1.312834
H      0.954402   -1.751900   -0.327408
H     -0.991392   -0.978425   -1.751471
H      1.922998    1.031374    0.564908
H      3.169855   -1.281026   -0.775378
H     -4.862772    1.443084    1.144504
H     -4.398158    0.107957   -1.922346
H      0.402082    1.908255   -2.770342
