37

C     -4.134931    0.850601    0.301983
C      0.630649   -0.876972    1.888337
C     -0.756387   -2.546918    0.795122
C      3.119460   -0.221409   -0.084883
C      1.577712    0.500803   -1.735276
C      3.923033    0.859744   -0.345875
C      2.376649    1.584706   -2.001771
C      1.067276   -1.578208   -0.492617
C     -2.710716    1.367907    0.368714
C      1.946046   -0.411037   -0.772161
C      3.557270    1.780650   -1.314040
C     -1.844543    0.240325    0.831155
C      0.017007   -1.271675    0.565243
Cl     4.548531    3.175375   -1.682950
N     -2.243150    1.858196   -0.904790
O     -2.107927   -0.296919    1.910638
O     -0.770389   -0.218946    0.102824
Cl     0.684122    0.000000    0.000000
H     -4.686819    1.253347    1.178510
H     -4.645495    1.253050   -0.601374
H     -4.194776   -0.247500    0.367105
H     -0.110851   -1.166813    2.689914
H      1.558281   -1.475498    2.033256
H      0.821732    0.203373    1.950538
H     -1.275158   -2.895136   -0.120890
H     -1.402708   -2.514429    1.687112
H      0.017459   -3.338579    1.019415
H      3.448502   -0.935727    0.693926
H      0.647514    0.374780   -2.298941
H      4.845934    0.996584    0.204276
H      2.076215    2.307182   -2.770973
H      0.549213   -1.851277   -1.426647
H      1.688849   -2.436434   -0.186237
H     -2.653514    2.234064    1.087037
H     -1.882374    1.078761   -1.504072
H     -2.997593    2.364028   -1.431608
H     -0.684122    0.000000    0.000000
