59

C      1.544609   -3.496978    2.701201
C     -4.228357    3.303344    0.783212
C     -5.525820    1.575007   -0.314653
C      6.993101    2.612651   -1.184429
C     -3.362847   -3.243317   -0.195067
C     -2.504917   -3.944357   -0.986894
C     -3.070537   -1.987298    0.336942
C     -1.284367   -3.368717   -1.269057
C      3.238015   -0.291231   -2.028366
C      3.129503    1.326650   -0.314506
C      4.513212    0.111838   -2.340229
C      4.425444    1.741234   -0.625498
C     -3.112043    1.534757   -0.439687
C     -2.869320    0.662979    0.768214
C      1.642844   -2.060794    2.317535
C      2.518164    0.308886   -1.007066
C      5.117497    1.135571   -1.636420
C     -1.861364   -1.447725    0.040599
C     -0.945345   -2.111769   -0.759548
C      0.947434   -0.186859    0.874170
C      1.160419   -0.091590   -0.629452
C     -0.430752    0.339952    1.125435
N     -4.302767    2.303366   -0.224597
N     -1.709822   -0.154556    0.653513
O      2.400252   -1.254730    2.907143
O     -0.538938    1.369682    1.852794
O      6.405366    1.565727   -1.925535
O      0.885376   -1.561130    1.277345
S      0.666521   -1.672509   -1.321948
Cl     0.688388    0.000000    0.000000
Cl     0.690568    0.000000    0.000000
H      2.552033   -3.945551    2.805455
H      1.022341   -3.650936    3.670988
H      0.927897   -4.028114    1.941684
H     -3.202062    3.327247    1.199766
H     -4.430726    4.325593    0.380095
H     -4.939242    3.092964    1.611991
H     -6.127696    1.773770    0.595139
H     -5.297097    0.485016   -0.304502
H     -6.134675    1.849209   -1.211932
H      6.353718    3.516810   -1.227524
H      8.024298    2.803291   -1.525804
H      7.011358    2.305436   -0.105408
H     -4.321505   -3.689944    0.030979
H     -2.785066   -4.921372   -1.373003
H     -3.748550   -1.462773    0.946665
H     -0.596974   -3.925651   -1.901773
H      2.728490   -1.088105   -2.555978
H      2.666033    1.870791    0.500792
H      5.072899   -0.361578   -3.138657
H      4.895319    2.548186   -0.066630
H     -2.275656    2.290454   -0.539536
H     -3.098190    0.989126   -1.392775
H     -2.517897    1.468899    1.528978
H     -3.746973    0.322147    1.289057
H      1.650546    0.387761    1.466021
H      0.476817    0.699244   -1.059237
H     -0.688388    0.000000    0.000000
H     -0.690568    0.000000    0.000000
