34

C     -1.373470    1.982850   -1.049271
C     -3.214459    1.379322    0.374164
C      1.724613   -2.874416    0.009279
C      2.493432    2.908852    0.259248
C     -0.384130   -2.077734    0.902203
C     -1.203344   -0.811862    1.025085
C     -0.254058   -0.559671   -1.231427
C     -1.968461    0.999848   -0.403306
C      1.044191   -1.664772    0.605690
C      2.250366    1.543955   -0.254015
C     -1.477337   -0.370336   -0.422322
C      1.019486   -0.572758   -0.401448
O      3.046624    1.074491   -1.098765
O      1.216197    0.713786    0.106931
H     -0.479580    1.903104   -1.652403
H     -1.786494    3.012617   -1.004926
H     -3.509118    0.550522    1.026683
H     -4.044497    1.611783   -0.313469
H     -3.025461    2.280446    0.994453
H      1.109814   -3.795706    0.082176
H      2.681511   -3.115806    0.538359
H      1.915490   -2.733584   -1.086444
H      2.295376    3.648296   -0.539540
H      1.855115    3.158443    1.130493
H      3.568091    3.039913    0.580071
H     -0.405207   -2.650953    1.871355
H     -0.734532   -2.712215    0.061200
H     -0.659791   -0.043103    1.586548
H     -2.165158   -1.061528    1.508933
H     -0.207736    0.034430   -2.134730
H     -0.317477   -1.636691   -1.615740
H      1.476234   -1.374205    1.583453
H     -2.329312   -1.026379   -0.744308
H      1.843083   -0.760936   -1.122967
