17

C     -2.374202   -1.041175    0.183166
C      2.500363   -0.512728   -0.428704
C     -1.050972   -0.435806    0.544684
C      1.049570   -0.186601   -0.230577
C     -0.865973    0.931450   -0.004280
C      0.577022    1.051047   -0.224276
O     -1.742781    1.789790   -0.229206
O      1.305379    2.237185   -0.393307
O      0.047829   -1.115437   -0.034502
H     -3.121059   -0.231794    0.093072
H     -2.327396   -1.710661   -0.674012
H     -2.709751   -1.656952    1.062827
H      2.820953   -1.205513    0.376001
H      2.657812   -0.965910   -1.442599
H      3.119398    0.386608   -0.388636
H     -0.928650   -0.389095    1.648220
H      1.042458    3.055592    0.142129
