28

C     -2.477292   -0.932049   -0.677932
C     -2.677872    0.779223    1.048940
C      2.755801   -1.134392    0.965938
C      1.643751    1.052042    0.619119
C      1.245451   -0.779209   -0.986247
C      0.176740    0.980245    0.833740
C      0.264038    0.279519   -1.440026
C     -2.006494    0.440413   -0.238090
C      2.233582   -0.131375   -0.065525
C     -0.554273    0.583857   -0.216480
H     -3.504118   -0.802879   -1.086211
H     -1.841613   -1.300997   -1.493381
H     -2.551410   -1.645421    0.169520
H     -2.288378    1.719853    1.501562
H     -3.770750    0.933760    0.945331
H     -2.541017   -0.015148    1.822563
H      3.065104   -0.535336    1.845536
H      3.654631   -1.650828    0.556579
H      1.978182   -1.868562    1.235382
H      1.816738    1.962597   -0.018831
H      2.145679    1.179785    1.612233
H      0.674301   -1.543532   -0.399271
H      1.718944   -1.304085   -1.837971
H     -0.329065    1.215314    1.742022
H     -0.350279   -0.027724   -2.290400
H      0.795293    1.237553   -1.679745
H     -2.401158    1.161599   -1.012138
H      3.125483    0.145777   -0.701606
