32

C      2.419979    1.918343    0.189865
C      3.019335   -0.355551   -0.264962
C     -2.804901    0.546431   -0.519569
C     -1.102121   -1.084705   -1.146673
C     -0.025858   -0.035294   -1.316077
C     -1.359131   -0.497262    1.238574
C      1.979722    0.679012   -0.019538
C     -2.073198   -0.695942   -0.054557
C      0.531755    0.404535    0.002010
C      0.163598   -0.615518    1.086527
O      0.716934   -0.274300    2.299060
O     -0.004744    0.375084   -0.000000
H      3.462108    2.200689    0.190302
H      1.714658    2.725799    0.376066
H      3.610290   -0.594955    0.644855
H      2.648495   -1.279216   -0.683602
H      3.723478    0.097650   -1.022518
H     -3.905924    0.401996   -0.520514
H     -2.603743    1.386303    0.169171
H     -2.525936    0.837746   -1.548729
H     -1.648236   -1.193309   -2.106041
H     -0.593118   -2.040286   -0.902580
H      0.722119   -0.448735   -2.011545
H     -0.504597    0.823480   -1.855060
H     -1.728253   -1.129717    2.069506
H     -1.526655    0.577140    1.543644
H     -2.824280   -1.495353    0.048874
H     -0.017074    1.325742    0.291170
H      0.441564   -1.629774    0.809176
H      0.088989   -0.554951    3.013165
H      0.820588   -0.185932    0.000000
H     -0.815845   -0.189152   -0.000000
