74

C      0.906124   -4.519240   -1.284021
C      5.374515   -1.785999   -1.006998
C     -7.380678    1.832875   -0.743015
C     -2.339163    4.288530   -0.466722
C      1.002505   -3.009087   -1.216524
C      2.723787    3.210783    2.148929
C     -4.133803   -1.934881   -0.833324
C      1.656915    2.516437    2.959430
C     -2.818198   -2.685939   -0.965399
C      1.439281   -0.890217    1.691667
C     -0.330450   -0.128221    0.100457
C      4.557498    2.694760    0.549055
C     -5.043578    0.331430   -0.747188
C      3.924660    0.034037    0.505323
C     -2.549642    1.463833   -0.614413
C     -0.879909   -2.859729    0.454875
C      0.529166   -2.506653    0.143774
C      3.480088    2.219558    1.301038
C     -3.896996   -0.462957   -0.751908
C      0.834226   -1.035809    0.339608
C      3.151292    0.902207    1.289683
C     -2.637346    0.091270   -0.685712
C      2.018270    0.409449    2.082116
C     -1.427877   -0.807506   -0.693583
C      5.278956    1.804786   -0.200963
C      4.994503    0.456903   -0.251179
C     -4.945088    1.694108   -0.676029
C     -3.700450    2.261048   -0.609706
N      1.024637    1.474105    2.147424
N     -1.864531   -2.035712   -0.128712
O      6.359835    2.274644   -0.957434
O      5.752866   -0.423063   -1.027496
O     -6.116708    2.463949   -0.673223
O     -3.613169    3.643561   -0.537987
Cl     0.689255    0.000000    0.000000
H      1.680692   -4.935680   -1.959736
H     -0.100352   -4.794938   -1.600525
H      1.059122   -4.916999   -0.241834
H      4.339136   -1.916652   -1.397249
H      5.404044   -2.107489    0.061994
H      6.095963   -2.429934   -1.540116
H     -7.503632    1.079764    0.089925
H     -8.168147    2.601541   -0.674049
H     -7.540376    1.293169   -1.694725
H     -1.792203    3.760417    0.366636
H     -2.430667    5.352702   -0.250738
H     -1.786543    4.093425   -1.395721
H      0.436717   -2.615327   -2.057955
H      2.062376   -2.674604   -1.340306
H      3.477373    3.712329    2.789685
H      2.309351    3.987092    1.473071
H     -4.624229   -2.273304    0.101590
H     -4.743797   -2.121310   -1.732848
H      0.916105    3.213929    3.379516
H      2.153636    1.998820    3.799759
H     -2.569106   -2.710250   -2.033442
H     -2.991333   -3.711787   -0.536610
H      2.224056   -1.688575    1.870419
H      0.634232   -1.144865    2.446441
H      0.013893    0.712172   -0.570179
H     -0.708834    0.319581    1.024900
H      4.773831    3.757464    0.595477
H     -6.044038   -0.114048   -0.800029
H      3.704504   -1.031619    0.492793
H     -1.603510    1.940654   -0.561676
H     -0.996347   -2.796845    1.576517
H     -1.036162   -3.931021    0.217079
H      1.159784   -3.106303    0.870007
H      1.635760   -0.809044   -0.428802
H      2.399953    0.327144    3.142850
H     -1.118975   -0.840169   -1.752975
H      1.044622    1.894485    1.160539
H      6.901566    1.642812   -1.513074
H     -0.689255    0.000000    0.000000
