42

C      6.408597   -1.030815    1.815949
C     -5.537436    0.355936    1.050143
C     -3.553182   -1.209931    1.098871
C     -0.727190    1.554503   -1.569010
C      5.008590   -0.534350    1.486989
C     -3.097485   -0.245646   -1.852193
C      4.780317   -0.599551   -0.002144
C     -4.123649    0.102415   -0.883123
C     -1.769894   -0.684402   -1.394214
C      0.384427   -0.231758   -0.337622
C      1.262980    0.765838    0.346219
C     -4.336317   -0.233169    0.340860
C     -0.971320    0.363732   -0.654996
C      3.415537   -0.111614   -0.283900
O      3.014661   -0.080889   -1.472167
O      2.532639    0.321293    0.685083
H      7.114022   -0.846677    0.988666
H      6.761466   -0.477710    2.722487
H      6.379259   -2.105044    2.008084
H     -6.357488    0.330876    0.273394
H     -5.893353   -0.320287    1.854396
H     -5.347200    1.381061    1.370199
H     -3.555300   -2.232109    0.596494
H     -4.031898   -1.455536    2.093200
H     -2.525174   -0.973217    1.342039
H      0.128246    1.342020   -2.234973
H     -1.576250    1.839151   -2.182774
H     -0.481649    2.468973   -0.954030
H      4.867325    0.513527    1.802210
H      4.244077   -1.175461    1.969106
H     -3.063497    0.548400   -2.642291
H     -3.529517   -1.128707   -2.438591
H      5.516093    0.056247   -0.542953
H      4.936859   -1.615433   -0.416078
H     -4.905242    0.822271   -1.302466
H     -1.143432   -0.912285   -2.315936
H     -1.818091   -1.622616   -0.853663
H      0.228862   -1.090654    0.380977
H      0.784293   -0.675566   -1.250610
H      1.267186    1.722837   -0.231534
H      0.740488    1.033683    1.312258
H     -1.431364    0.686585    0.277643
