74

C      0.081773   -4.609794    1.487991
C     -4.312454    3.550365    2.999601
C      7.460415    2.578993   -0.297414
C      2.242562    3.927586    1.127824
C     -0.675879   -3.468760    0.827395
C     -4.533033   -1.155601   -1.454956
C      4.448666   -1.290029   -1.820480
C     -3.369915   -0.936765   -2.354917
C      3.538468   -2.245479   -1.099235
C     -1.676719   -0.905084    0.296547
C      0.646273   -0.152974   -0.321886
C     -6.035876    0.155897    0.013382
C      5.323460    0.885712   -0.851531
C     -3.840729    1.535870    1.006093
C      2.736710    1.518155   -0.163621
C      1.325132   -2.921403   -0.573065
C      0.311495   -2.419048    0.398264
C     -4.749933   -0.112750   -0.433405
C      4.278197    0.039139   -1.131868
C     -0.358281   -1.237994   -0.288266
C     -3.657443    0.565654    0.052499
C      2.967867    0.329006   -0.799092
C     -2.315664    0.207253   -0.494203
C      1.852115   -0.593070   -1.116024
C     -6.229028    1.132575    0.974524
C     -5.138154    1.814714    1.464420
C      5.088148    2.094771   -0.205538
C      3.790459    2.393718    0.130346
N     -2.360653   -0.045039   -1.900564
N      2.154819   -1.951083   -1.152770
O     -7.518173    1.430245    1.449497
O     -5.341748    2.792889    2.428607
O      6.150163    2.957572    0.080623
O      3.573745    3.601382    0.773272
Cl     0.683940    0.000000    0.000000
H     -0.609213   -5.231770    2.090585
H      0.539359   -5.271783    0.733262
H      0.855293   -4.149267    2.154849
H     -3.759953    2.901446    3.716621
H     -3.605157    3.911107    2.225202
H     -4.770703    4.376881    3.580564
H      7.524110    2.263998   -1.361828
H      8.160275    3.422186   -0.134270
H      7.813445    1.728865    0.349203
H      2.182691    4.942746    1.566980
H      1.559731    3.876774    0.252305
H      1.869100    3.209872    1.903616
H     -1.262106   -3.856579   -0.028995
H     -1.340751   -3.064697    1.619458
H     -5.490610   -1.319624   -2.010102
H     -4.335406   -2.109272   -0.886163
H      5.472678   -1.652809   -1.731116
H      4.094772   -1.158861   -2.850938
H     -3.793362   -0.503189   -3.311568
H     -2.941865   -1.923806   -2.713794
H      3.923275   -2.343632   -0.040946
H      3.688861   -3.247969   -1.598527
H     -1.514542   -0.496881    1.339118
H     -2.339527   -1.786841    0.397744
H      0.244317    0.810935   -0.739378
H      0.928251    0.072123    0.741239
H     -6.894910   -0.382984   -0.374127
H      6.326867    0.615049   -1.131269
H     -2.988825    2.078992    1.398512
H      1.731784    1.836441    0.140752
H      1.893016   -3.767727   -0.095178
H      0.750320   -3.431149   -1.403755
H      0.840487   -2.036651    1.294578
H     -0.530838   -1.580019   -1.339028
H     -1.645178    1.113261   -0.367381
H      1.568538   -0.310950   -2.189474
H     -2.381349    0.851884   -2.397995
H     -7.619662    2.147277    2.149193
H     -0.683940    0.000000    0.000000
