53

C      6.321637   -1.980640    1.017245
C     -5.782432   -0.181920   -2.938184
C     -4.826395   -1.661385    2.301411
C      4.555161    1.992473   -0.899860
C      2.095683   -1.744831    1.435181
C      3.464017   -1.807345    1.296643
C     -1.097947    1.635560   -1.798256
C      0.229564    1.195905   -1.221482
C     -0.009238   -0.485098    1.381109
C     -3.338729    0.530864   -1.709854
C     -2.891142   -0.224664    0.913238
C      1.512662    1.867916    0.667145
C      1.447449   -0.542206    1.230673
C     -2.149821    0.856536   -1.055075
C     -1.895486    0.499567    0.239511
C      2.190723    0.544526    0.897290
C     -0.629993    0.826092    0.985209
C      4.242666   -0.721641    0.959585
C     -4.280674   -0.177694   -1.009233
C     -4.076149   -0.565381    0.304321
C      3.571134    0.466349    0.761029
N      0.193717    1.655388    0.173648
O      5.623067   -0.786530    0.820271
O     -5.479421   -0.531618   -1.600230
O     -5.075778   -1.288061    0.968722
O      4.278359    1.604100    0.419964
Cl     0.689527    0.000000    0.000000
H      7.423932   -1.754888    1.088891
H      6.206593   -2.674691    0.147742
H      5.966762   -2.491248    1.926282
H     -5.795186    0.918681   -3.036105
H     -6.795185   -0.585301   -3.170565
H     -5.055608   -0.563685   -3.665255
H     -5.810208   -1.950306    2.741894
H     -4.142053   -2.521077    2.390488
H     -4.479141   -0.791027    2.927331
H      3.849137    1.469465   -1.573380
H      4.440538    3.072876   -0.994139
H      5.588142    1.681672   -1.182613
H      1.543717   -2.635270    1.701918
H      3.998882   -2.746662    1.453187
H     -1.173561    1.492741   -2.882930
H     -1.262947    2.702516   -1.510844
H      0.264386    0.090999   -1.284896
H      1.085849    1.693229   -1.705157
H     -0.224807   -0.677250    2.471616
H     -0.431601   -1.327200    0.781785
H     -3.487991    0.831941   -2.717606
H     -2.701516   -0.508741    1.927105
H      2.106471    2.354388   -0.161048
H      1.580673    2.528158    1.531886
H     -0.887908    1.414415    1.896851
H     -0.689527    0.000000    0.000000
