62

C      9.524386   -0.924922    0.424410
C      8.604532   -0.250326   -0.539816
C     -3.991743    0.526949   -0.136674
C     -2.469827    0.321684   -0.125883
C     -4.561574    0.599534   -1.507181
C     -1.771900    1.455516   -0.816644
C      6.806108   -0.256355    0.901867
C      5.770472    0.653438    1.524170
C      4.252453    0.408863   -0.209081
C      3.324526   -0.474036    0.594646
C     -6.971750    1.252413    0.993484
C      1.491950    0.979355    0.695121
C     -7.657766    0.132782    0.235926
C     -6.068022    0.784795   -1.547670
C     -0.304427    1.359532   -0.845403
C     -6.869011   -0.279237   -0.931938
C     -6.792227   -1.856855    0.690913
C      0.560396    0.301246   -0.285011
N     -0.219767   -0.712219    0.344955
N      1.263222   -0.287364   -1.418540
N     -7.636708   -1.001574    1.113111
N     -6.150693   -1.430030   -0.489582
O      0.307024    2.283961   -1.413216
O     -6.528767   -3.076327    1.320014
O      7.607792    0.504296    0.086704
O      4.974781    1.278573    0.597767
O      2.391917    0.192177    1.322685
S     -6.374898    2.231043   -0.445129
H      9.318354   -2.030398    0.403903
H     10.591451   -0.731001    0.110460
H      9.447406   -0.570394    1.458050
H      9.168128    0.398803   -1.227215
H      8.075255   -0.997905   -1.168311
H     -4.129294    1.477743    0.441584
H     -4.389455   -0.261949    0.516271
H     -2.225023    0.285643    0.969307
H     -2.323787   -0.652209   -0.639331
H     -4.154505    1.523590   -1.998611
H     -4.276305   -0.260487   -2.110948
H     -2.194693    1.615888   -1.839821
H     -2.029506    2.385291   -0.245608
H      7.427276   -0.644809    1.736766
H      6.356897   -1.132269    0.402790
H      6.361397    1.474035    2.029364
H      5.218942    0.161258    2.350854
H      4.861952   -0.219543   -0.856822
H      3.620792    1.051821   -0.854882
H      2.923420   -1.245384   -0.082903
H      3.938424   -1.066323    1.348333
H     -6.152676    0.894230    1.623514
H     -7.712346    1.881931    1.496862
H      0.820817    1.415311    1.481573
H      1.937019    1.857619    0.183153
H     -8.713963    0.431609   -0.021464
H     -6.420853    1.012257   -2.567188
H     -7.638348   -0.601530   -1.718396
H     -0.091954   -0.772676    1.377973
H     -0.156005   -1.652036   -0.113933
H      0.731071   -1.123147   -1.778342
H      1.420797    0.402946   -2.179428
H     -5.334027   -1.865752   -0.940784
H     -6.787136   -3.261994    2.279223
