25

C      0.672046   -1.695283    0.411499
C      2.037192   -1.700493    0.260517
C      0.617507    0.644957    0.002398
C     -2.068873    0.831919    0.115861
C     -0.045916   -0.512007    0.281569
C      2.693887   -0.535290   -0.019173
C      1.993230    0.629450   -0.147836
C     -1.515882   -0.513076    0.437738
N     -3.504453    0.909362    0.328047
O      4.071216   -0.525896   -0.174005
O      2.682959    1.794563   -0.431186
O     -2.088539   -1.536535   -0.320210
Cl     0.687284    0.000000    0.000000
H      0.154601   -2.611494    0.631526
H      2.572667   -2.634649    0.366585
H      0.123736    1.592557   -0.115094
H     -1.870428    1.158864   -0.919599
H     -1.626313    1.589052    0.812991
H     -1.728269   -0.756717    1.498090
H     -4.041899    0.319579   -0.332450
H     -3.852827    1.866251    0.448701
H      4.582496    0.316457   -0.380283
H      2.252486    2.697739   -0.543518
H     -2.110624   -1.329311   -1.274200
H     -0.687284    0.000000    0.000000
