14

C     -0.921233    0.173114   -0.405999
C     -2.177208   -0.553342   -0.203575
C      1.526881   -0.083771    0.140406
N      1.748735    1.002589   -0.526947
N      0.170788   -0.548975    0.179516
O     -1.004037    1.486201    0.065876
O     -3.185542   -0.228545   -0.907469
O     -2.235925   -1.569682    0.743254
O      2.512986   -0.780080    0.788831
H     -0.754064    0.262562   -1.510244
H      2.719289    1.353596   -0.566747
H     -0.000986   -1.449282    0.657858
H     -1.887081    1.585081    0.503550
H      3.487397   -0.649466    0.504224
