76

C      1.442365    0.814039   -4.387000
C      5.030976   -3.396627    1.575078
C     -6.966847   -1.765392    2.053419
C     -3.204881    2.285955    2.659160
C      0.382401   -0.187716   -4.019439
C      2.817445    2.668752    2.183847
C     -3.697223   -2.236797   -1.891424
C      2.008840    2.868739    0.948291
C     -2.806056   -1.718396   -2.995112
C      1.934612   -0.423828   -0.645823
C     -0.464568    0.008983   -0.739261
C      4.501713    1.137171    3.150490
C     -4.806833   -1.453855    0.145738
C      3.777473   -0.911972    1.479427
C     -3.007735    0.540532    0.500558
C     -0.449047   -1.898923   -2.526434
C      0.708793   -0.943440   -2.747630
C      3.488233    1.346152    2.238453
C     -3.760453   -1.295777   -0.768947
C      0.787924   -0.023614   -1.553159
C      3.133631    0.305610    1.403020
C     -2.848292   -0.290864   -0.596036
C      2.038639    0.592791    0.445698
C     -1.728936   -0.103561   -1.555398
C      5.142156   -0.096637    3.215955
C      4.799702   -1.147330    2.387921
C     -4.954491   -0.619960    1.232683
C     -4.034688    0.392816    1.406434
N      2.304632    1.916995   -0.102140
N     -1.625582   -1.098670   -2.541065
O      6.160276   -0.314117    4.128640
O      5.449120   -2.374831    2.465229
O     -5.990504   -0.773836    2.141013
O     -4.173571    1.246604    2.506513
Cl     0.687420    0.000000    0.000000
Cl     0.685952    0.000000    0.000000
H      1.244552    1.816441   -3.917941
H      2.465314    0.462232   -4.200222
H      1.353741    0.987110   -5.487308
H      5.033240   -2.994507    0.521978
H      5.768700   -4.243340    1.554230
H      4.008850   -3.751249    1.771516
H     -7.437347   -1.889316    3.043275
H     -6.600418   -2.731891    1.663050
H     -7.782380   -1.404211    1.364421
H     -3.191196    2.939535    1.771869
H     -2.190630    1.819632    2.747161
H     -3.358086    2.837248    3.604115
H     -0.584325    0.326593   -3.966409
H      0.345922   -0.945535   -4.831326
H      3.548522    3.508249    2.289148
H      2.122880    2.773247    3.061301
H     -4.745810   -2.382468   -2.258440
H     -3.304087   -3.204499   -1.545888
H      2.161115    3.882622    0.522657
H      0.902420    2.781890    1.134065
H     -3.413974   -0.965382   -3.556716
H     -2.552758   -2.506385   -3.723748
H      1.681661   -1.403794   -0.219250
H      2.856085   -0.507640   -1.255286
H     -0.499067    1.009096   -0.232517
H     -0.444779   -0.751615    0.064081
H      4.792489    1.949117    3.816318
H     -5.514651   -2.246479   -0.002617
H      3.476115   -1.707925    0.810281
H     -2.302189    1.340025    0.658826
H     -0.504383   -2.667996   -3.308101
H     -0.286052   -2.423650   -1.563477
H      1.664279   -1.478694   -2.885703
H      1.008377    0.988398   -1.937164
H      1.078909    0.596957    0.998619
H     -1.944730    0.878302   -2.070173
H      3.317763    1.978209   -0.380906
H      6.436704    0.426775    4.747581
H     -0.687420    0.000000    0.000000
H     -0.685952    0.000000    0.000000
