72

C      2.273358   -2.755235    1.870181
C      6.253469    2.016622   -0.591598
C     -4.047686   -1.197007   -0.703232
C     -0.420450   -1.843139    1.066441
C      3.707152   -0.729283   -1.055533
C      3.249253   -1.889764   -0.221749
C      4.781615    0.081701   -0.422877
C     -4.188370    0.322059    1.744816
C     -2.724995    0.406497    2.010682
C      1.484136    0.046352    2.560016
C     -0.003354    0.323433    2.727775
C     -4.717704    2.265743   -1.795588
C     -1.414555   -0.532702   -1.169382
C     -4.087593    0.878661   -1.977577
C      0.070257   -0.436989   -0.840756
C     -5.926310    1.126362    0.111152
C      2.656222   -1.519401    1.109635
C      5.156292    1.242185   -1.317404
C     -4.459544    0.970181    0.432686
C     -5.986609    2.066281   -1.043119
C     -1.845046    0.480733    1.049116
C      1.678897   -0.417815    1.120507
C     -0.402387    0.563925    1.297861
C     -2.220603    0.487319   -0.410159
C      5.701301    0.837844   -2.618407
C     -3.675151    0.274415   -0.646302
C      0.313630   -0.634561    0.635077
O     -7.013679    2.638139   -1.353242
O      6.915702    0.997270   -2.874435
O      4.869459    0.278120   -3.565399
H      1.635019   -3.455731    1.305693
H      3.241772   -3.339711    1.988489
H      1.967123   -2.552534    2.900229
H      6.869631    1.320299   -0.010480
H      6.868633    2.518734   -1.339253
H      5.736026    2.742572    0.093396
H     -3.722278   -1.779939    0.155293
H     -5.147905   -1.317756   -0.814711
H     -3.626736   -1.588524   -1.675585
H     -0.371474   -2.649972    0.275865
H     -0.249945   -2.210525    2.074954
H     -1.521055   -1.567312    1.052861
H      2.856007   -0.061957   -1.263245
H      4.127932   -1.171234   -2.003170
H      4.130330   -2.565250   -0.009418
H      2.572566   -2.499242   -0.846865
H      4.467075    0.548255    0.544180
H      5.736206   -0.488625   -0.290210
H     -4.767893    0.762490    2.584023
H     -4.471719   -0.762753    1.748733
H     -2.409987    0.403753    3.068229
H      1.898877   -0.619832    3.309625
H      1.975774    1.035833    2.724884
H     -0.184308    1.279336    3.280498
H     -0.488158   -0.533566    3.192825
H     -5.001231    2.589795   -2.818051
H     -4.027422    2.968519   -1.309193
H     -1.526192   -0.321571   -2.251812
H     -1.708041   -1.567520   -0.989740
H     -3.264119    0.909174   -2.703500
H     -4.890704    0.259272   -2.426416
H      0.445276    0.556089   -1.130924
H      0.551794   -1.226942   -1.456909
H     -6.411180    1.575113    0.980876
H     -6.416059    0.181670   -0.161932
H      3.549708   -1.131510    1.696817
H      4.268353    1.898845   -1.396890
H     -4.048217    2.018402    0.495760
H      2.112414    0.431591    0.566605
H      0.074865    1.474312    0.937497
H     -1.940662    1.488458   -0.792366
H      5.133198    0.101547   -4.521169
