62

C      8.432888   -1.392718   -0.745370
C      7.298169   -1.064790    0.226353
C     -3.180196    0.716444    0.486508
C     -2.514539   -0.263992    1.385151
C     -4.384407    1.358201    1.142131
C     -1.329132   -0.926426    0.794342
C      7.485520    1.199426   -0.194754
C      6.229147    1.298721   -1.022686
C      3.961256    1.651603   -0.900106
C      2.799296    1.923791   -0.005823
C     -8.038917   -0.271623    1.356664
C      2.224654   -0.251336    0.647253
C     -7.113606   -1.158433    0.566267
C     -5.374582    0.294135    1.493631
C     -0.239020   -0.026428    0.440332
C     -5.835153   -0.455268    0.293353
C     -7.182968   -0.399226   -1.519124
C      1.014533   -0.474069   -0.231288
N      0.876663   -1.927210   -0.425882
N      1.089250    0.146854   -1.512791
N     -7.706100   -1.273065   -0.750122
N     -6.213346    0.370825   -0.826493
O     -0.311669    1.159514    0.686198
O     -7.558714   -0.263696   -2.869358
O      7.463188    0.208135    0.747969
O      5.151352    1.554256   -0.154707
O      2.520820    1.029053    0.947587
S     -6.959806    1.010053    2.062726
H      9.301467   -0.714265   -0.583752
H      8.822051   -2.422407   -0.582342
H      8.086809   -1.312626   -1.785283
H      6.307579   -1.126015   -0.239545
H      7.334509   -1.804084    1.081607
H     -3.496125    0.151495   -0.432982
H     -2.477913    1.474266    0.134781
H     -2.184084    0.220308    2.335632
H     -3.255322   -1.090526    1.610665
H     -4.030232    1.835018    2.078621
H     -4.866118    2.102205    0.496987
H     -1.685309   -1.555952   -0.052011
H     -0.941554   -1.679850    1.539946
H      7.702590    2.155221    0.336022
H      8.364184    1.072736   -0.892271
H      6.362813    2.164202   -1.710660
H      6.014262    0.367110   -1.553512
H      4.106612    2.511354   -1.586622
H      3.892228    0.748719   -1.499233
H      1.899729    2.175879   -0.603446
H      3.042351    2.899485    0.519762
H     -8.863656    0.153438    0.776691
H     -8.404832   -0.882285    2.229602
H      3.099808   -0.856886    0.283451
H      1.964639   -0.762988    1.626317
H     -6.964081   -2.149079    1.041653
H     -5.061761   -0.407809    2.259919
H     -5.106280   -1.233145   -0.037870
H      0.835678   -2.427392    0.474182
H      0.145632   -2.163912   -1.106143
H      1.653925   -0.430582   -2.156477
H      0.170098    0.442175   -1.886441
H     -5.876259    1.298324   -1.083357
H     -8.498017   -0.565998   -3.151857
