72

C      2.228554   -1.506066    1.648301
C      5.907335    2.134131   -0.342649
C     -4.219557   -0.461414    1.698658
C     -0.552688   -1.438905    0.767594
C      4.374194   -0.346554    0.119907
C      3.593356   -1.526961   -0.351835
C      5.806037   -0.364582   -0.365058
C     -4.330097   -1.280518   -1.108662
C     -2.907668   -1.088392   -1.451165
C      1.348072   -0.401594   -1.927910
C     -0.104135   -0.869165   -2.157949
C     -5.962443    2.181873    0.386203
C     -1.759335    0.990825    1.267764
C     -4.671984    1.830888    1.065643
C     -0.295877    0.995486    0.902660
C     -6.330272   -0.243283   -0.219606
C      2.142033   -1.494437    0.146933
C      6.555167    0.863113    0.146428
C     -4.896755    0.005895   -0.617901
C     -6.847955    0.993157    0.417442
C     -2.169875   -0.170060   -0.900599
C      1.390198   -0.332945   -0.411317
C     -0.773720    0.036500   -1.219881
C     -2.688401    0.801789    0.136550
C      7.984656    0.796683   -0.175086
C     -4.077267    0.509677    0.551699
C      0.001776   -0.239131    0.080975
O     -7.930797    1.043392    0.937452
O      8.553900    1.726784   -0.792347
O      8.735262   -0.301085    0.199706
H      3.276032   -1.725163    2.018675
H      1.651038   -2.404569    2.016549
H      1.940878   -0.585031    2.145898
H      6.698866    2.845690   -0.711032
H      5.206303    1.917843   -1.175982
H      5.371373    2.683891    0.459946
H     -5.316392   -0.563259    1.924258
H     -3.807739   -0.001359    2.644705
H     -3.858272   -1.465532    1.513041
H     -0.169965   -2.406793    0.455068
H     -1.657234   -1.466357    0.590622
H     -0.462753   -1.335321    1.874001
H      4.426143   -0.271874    1.222541
H      3.947650    0.625156   -0.223911
H      4.032978   -2.423253    0.183926
H      3.689166   -1.752183   -1.408765
H      5.830616   -0.276737   -1.489894
H      6.344853   -1.286077   -0.121572
H     -4.909331   -1.703433   -1.977043
H     -4.368956   -2.102393   -0.347868
H     -2.427244   -1.739032   -2.203327
H      1.377388    0.644024   -2.297440
H      2.061621   -1.062831   -2.390148
H     -0.368216   -0.744569   -3.228345
H     -0.142774   -1.933207   -1.891859
H     -6.379761    3.054084    0.885036
H     -5.770767    2.402684   -0.698018
H     -1.966006    1.965676    1.758718
H     -1.865212    0.226052    2.083254
H     -3.976633    2.690121    0.873945
H     -4.821357    1.824169    2.160145
H     -0.085764    1.872019    0.257246
H      0.277061    1.089648    1.821812
H     -6.487007   -1.149413    0.360012
H     -6.903254   -0.364173   -1.179040
H      1.709265   -2.449586   -0.273256
H      6.425422    0.845145    1.262631
H     -4.884609    0.727109   -1.451451
H      1.912300    0.623165   -0.108667
H     -0.566633    1.087314   -1.512751
H     -2.718890    1.782854   -0.430383
H      9.634100   -0.539598   -0.184165
