66

C      7.888079    1.869254    2.113337
C      6.955515    2.353009   -0.183706
C      2.765099    0.480914   -2.605560
C     -1.593595   -0.981880   -2.237662
C      4.692263    0.255090    0.716142
C      1.151699   -1.323998   -1.117398
C      5.869581    0.758089    1.414091
C      4.427269    0.721390   -0.660962
C      2.410799   -0.725542   -0.534757
C     -5.713857    2.127502    2.107405
C     -2.980698   -3.433349    0.640786
C     -5.344472    0.902496    2.629282
C     -2.608634   -3.662316   -0.789898
C     -0.044068   -0.964598   -0.308677
C     -4.753627    1.496909    0.036882
C     -3.667732   -0.553978   -0.517803
C     -3.267601   -2.038053    2.514574
C      6.796607    1.598668    1.077174
C      3.162363    0.112909   -1.223346
C     -5.413748    2.420307    0.802959
C     -2.872982   -2.175677    1.061993
C     -4.362807    0.256264    0.514524
C     -2.419299   -1.128781    0.120525
C     -4.671256   -0.022556    1.825876
C     -1.258266   -3.005952   -0.965800
C     -5.808874    3.725462    0.251866
C     -1.353831   -1.516566   -0.833143
Br    -0.458799   -3.531835   -2.648394
O     -5.529841    3.983801   -0.942718
O     -6.468079    4.656855    1.004854
O     -4.393542   -1.180428    2.536830
H      7.936281    1.034094    2.839697
H      7.656282    2.788420    2.680204
H      8.854401    2.028686    1.598441
H      7.926575    2.942812   -0.113624
H      7.081003    1.715291   -1.078632
H      6.151862    3.109559   -0.353722
H      3.450907    1.213291   -3.061247
H      1.768752    0.989693   -2.535334
H      2.726105   -0.395420   -3.282036
H     -2.555009   -1.289980   -2.644363
H     -1.531853    0.131417   -2.182741
H     -0.799434   -1.402687   -2.888721
H      3.798444    0.536668    1.360874
H      4.714199   -0.870383    0.792638
H      1.355252   -2.410465   -1.162887
H      1.085099   -0.948885   -2.153530
H      5.978880    0.318589    2.449438
H      5.229838    0.355076   -1.325997
H      4.260651    1.805894   -0.719840
H      2.722601   -0.976136    0.473351
H     -6.231325    2.818510    2.751914
H     -3.315654   -4.219315    1.302712
H     -5.589223    0.682646    3.665212
H     -3.363195   -3.343710   -1.505836
H     -2.447698   -4.781288   -0.867379
H     -0.148811    0.152916   -0.352855
H      0.072200   -1.201707    0.767067
H     -4.532795    1.772492   -1.003708
H     -4.396784   -1.320140   -0.841456
H     -3.394756    0.125186   -1.350753
H     -2.396780   -1.623247    3.058224
H     -3.566724   -3.031807    2.886051
H     -2.049484   -0.279459    0.791904
H     -0.631858   -3.364082   -0.099115
H     -6.951615    5.464059    0.634859
