69

C      6.592707   -2.142745    1.755007
C     -4.329501    5.154564    0.519673
C     -6.946448    0.457521   -1.038065
C     -1.752857   -5.572582   -0.829264
C     -4.800957   -2.636065    0.627527
C      7.405353    0.901874   -1.047693
C      6.509685    1.931370   -1.187404
C      7.135970   -0.087155   -0.134326
C      5.359182    1.949347   -0.407085
C      1.528863   -1.696095   -0.129170
C      1.902106   -0.369449   -0.775105
C      1.942365    1.876876    0.179028
C      2.863391    1.802574    1.352440
C     -0.878760    1.477672    0.838428
C     -0.567504   -3.037217   -0.444930
C     -2.963398    2.797355    0.415794
C     -4.240241    0.422349   -0.367451
C      0.054604   -1.803436   -0.258863
C     -2.296606    1.617220    0.362128
C     -2.920829    0.427961   -0.028464
C     -0.159128    0.692578   -0.156805
C      6.000321   -0.053342    0.623327
C      5.051820    0.979898    0.516492
C     -4.302636    2.792530    0.072207
C     -4.942577    1.639781   -0.312162
C     -1.938259   -3.124698   -0.551790
C     -0.722662   -0.696748   -0.189314
C     -2.124464   -0.774383   -0.293566
C     -2.728691   -1.992365   -0.473967
N      1.256113    0.727610   -0.202652
O      5.708065   -1.052336    1.560489
O     -5.007552    3.983157    0.120060
O     -6.278178    1.623578   -0.655000
O     -2.475254   -4.388537   -0.739022
O     -4.075830   -2.222018   -0.582277
O      3.935375    0.971988    1.285066
H      6.109054   -2.895002    2.392744
H      7.516202   -1.787273    2.235523
H      6.850102   -2.652484    0.792904
H     -3.926357    4.921858    1.550097
H     -4.972390    6.033395    0.538792
H     -3.436557    5.267198   -0.129221
H     -6.431147    0.042041   -1.935083
H     -6.954302   -0.275879   -0.202843
H     -8.001404    0.685984   -1.356247
H     -2.341881   -6.416941   -1.244139
H     -1.429730   -5.852096    0.212888
H     -0.852626   -5.391602   -1.453893
H     -4.555609   -1.939551    1.429101
H     -4.613943   -3.695519    0.831281
H     -5.872498   -2.530852    0.356640
H      8.296977    0.903710   -1.664505
H      6.666903    2.737411   -1.889085
H      7.858707   -0.902092   -0.032994
H      4.690874    2.800956   -0.534618
H      2.067295   -2.512407   -0.615471
H      1.739289   -1.608993    0.958300
H      2.967081   -0.223122   -0.901502
H      1.502686   -0.475005   -1.838543
H      2.563252    2.192330   -0.718436
H      1.233475    2.752500    0.262890
H      2.261340    1.532032    2.287598
H      3.260484    2.854103    1.532396
H     -0.888648    0.874180    1.804770
H     -0.521164    2.482754    1.092943
H      0.102286   -3.883293   -0.494226
H     -2.439503    3.707715    0.722524
H     -4.754936   -0.427008   -0.717040
H     -0.486903    1.102322   -1.181779
