40

C     -2.146476    0.440521   -1.935936
C     -4.123296    1.836452    0.522197
C      2.656524   -0.349833    2.091147
C     -5.691338   -0.547951    0.524432
C      5.431832    0.731325   -1.013223
C     -1.207391   -0.045089    0.270647
C      2.906532   -1.119392   -0.794245
C     -2.165800    0.864551   -0.463576
C     -3.541661    0.764464    0.034278
C      2.069997    0.269480    0.855581
C     -4.305023   -0.483246    0.013702
C      4.364233    0.732160    0.009229
C      3.014479    0.307202   -0.305182
C      1.014139   -0.676475    0.319869
O     -3.783164   -1.524965   -0.443996
O      4.640489    1.098897    1.128936
O      0.051932    0.143814   -0.313191
O      1.587149   -1.453845   -0.645879
H     -3.085087   -0.103172   -2.162776
H     -1.246057   -0.162058   -2.154170
H     -2.170314    1.363020   -2.584366
H     -3.577517    2.762984    0.545526
H     -5.126146    1.799663    0.894026
H      1.834568   -0.905150    2.600935
H      2.999331    0.422197    2.825015
H      3.440606   -1.102822    1.877719
H     -6.344197    0.030974   -0.189102
H     -5.759884   -0.036057    1.516593
H     -6.042286   -1.573413    0.623231
H      5.036807    0.871863   -2.044026
H      6.104340    1.616339   -0.829870
H      6.087399   -0.159731   -0.955453
H     -1.482273   -1.104450    0.082427
H     -1.142668    0.177309    1.336649
H      3.270034   -1.223331   -1.849603
H      3.513818   -1.797815   -0.161432
H     -1.821450    1.911344   -0.390713
H      1.655349    1.259872    1.122156
H      2.547349    0.947980   -1.089066
H      0.535125   -1.275333    1.131512
