69

C      6.993545   -3.531016   -0.899774
C     -2.690231   -4.771313    2.344915
C     -6.778992   -1.341171    0.632163
C     -3.577974    5.126937   -2.498994
C     -5.483917    1.164300   -2.116354
C      7.709276   -0.406620    1.784512
C      6.771680    0.591976    1.918939
C      7.487800   -1.446413    0.900902
C      5.584525    0.578127    1.171570
C      0.755521    2.654487   -1.387850
C      1.259213    2.350085    0.034313
C      2.219476    0.216556    0.596140
C      3.092250    0.155149   -0.634816
C     -0.340676   -0.947675    0.312205
C     -1.660971    3.306568   -1.685929
C     -2.135155   -2.421104    1.098451
C     -4.119924   -0.697859    0.234422
C     -0.723394    2.404191   -1.284979
C     -1.787890   -1.225068    0.459501
C     -2.797431   -0.383065    0.036188
C      0.021196    0.290450   -0.392570
C      6.320011   -1.449678    0.173901
C      5.345486   -0.449668    0.286673
C     -3.453738   -2.744117    1.297984
C     -4.449937   -1.899326    0.875178
C     -2.996413    2.999209   -1.548815
C     -1.090746    1.171911   -0.734198
C     -2.446527    0.891480   -0.604398
C     -3.396710    1.769893   -1.001196
N      1.061940    0.990016    0.270062
O      6.051840   -2.476088   -0.728760
O     -3.750600   -3.939754    1.933589
O     -5.770949   -2.215998    1.071516
O     -3.966849    3.886707   -1.944543
O     -4.749259    1.598487   -0.937683
O      4.242447   -0.557980   -0.471901
H      8.005029   -3.117104   -1.057438
H      6.649984   -4.209449   -1.688873
H      7.057638   -4.149628    0.032302
H     -1.981609   -4.981418    1.498183
H     -3.087617   -5.750005    2.686436
H     -2.100915   -4.266304    3.135222
H     -6.662452   -1.080718   -0.456634
H     -6.810423   -0.422658    1.252631
H     -7.788077   -1.806584    0.737254
H     -4.457633    5.698213   -2.872473
H     -3.118986    5.716338   -1.655286
H     -2.807768    5.042021   -3.281794
H     -6.501527    0.936446   -1.741519
H     -5.004456    0.318496   -2.605630
H     -5.581776    2.077798   -2.741645
H      8.634029   -0.415661    2.352077
H      6.935596    1.410153    2.607522
H      8.222496   -2.253970    0.777483
H      4.877856    1.397936    1.299397
H      0.975792    3.678381   -1.698973
H      1.231456    1.904002   -2.046030
H      2.307441    2.638942    0.172531
H      0.641978    3.033405    0.687352
H      1.953617   -0.858104    0.811298
H      2.713344    0.688161    1.444234
H      2.502287   -0.119881   -1.540370
H      3.385416    1.236151   -0.838293
H      0.024458   -0.837619    1.386622
H      0.174461   -1.836719   -0.140219
H     -1.349178    4.250829   -2.105446
H     -1.322303   -3.062021    1.420077
H     -4.941721   -0.083651   -0.020807
H      0.475638   -0.018391   -1.398252
