47

C     -0.135326    4.324457   -3.571297
C      3.082984   -2.093721    1.996868
C      5.431028   -1.387928    2.180930
C     -2.412414   -1.662784   -1.543021
C     -1.887716   -2.800197   -0.698691
C      2.863582    1.552982   -0.692409
C      1.487478   -0.132239    0.114170
C     -4.478662    0.579439    1.961436
C     -4.038978   -1.754237    2.118951
C      0.441421    3.292766   -2.658827
C      2.723570    0.410414    0.088388
C     -4.680105   -0.628919    2.588824
C     -3.645701    0.705722    0.863115
C      1.818653    2.107739   -1.399843
C     -2.089250   -0.330275   -0.798448
C     -3.199697   -1.616367    1.009037
C      0.363155    0.391296   -0.594219
C     -3.013325   -0.410625    0.401617
C      0.563713    1.521734   -1.348427
C      3.903774   -0.073988    0.785044
F     -5.511466   -0.725696    3.676050
F     -3.475872    1.935172    0.269513
N      1.691055    3.176005   -2.206142
N     -0.262534    2.249595   -2.115912
N      4.079665   -1.159240    1.618043
O      5.011808    0.620412    0.611951
O     -2.568139   -2.786938    0.565241
O     -0.811667   -0.220092   -0.500905
H      0.566703    5.169106   -3.648584
H     -1.121659    4.600775   -3.161245
H     -0.232560    3.885828   -4.593170
H      2.743958   -2.649566    1.092223
H      2.293093   -1.605421    2.580712
H      3.578741   -2.864929    2.699807
H      5.814400   -0.370952    2.461577
H      5.380960   -1.965265    3.108766
H      6.114033   -1.793875    1.433471
H     -1.944611   -1.674292   -2.527818
H     -3.519446   -1.703969   -1.559874
H     -2.192372   -3.750099   -1.180858
H     -0.810901   -2.721982   -0.528617
H      3.829983    2.035123   -0.754210
H      1.277598   -0.999383    0.676144
H     -5.002295    1.451068    2.359785
H     -4.213143   -2.686825    2.626937
H     -2.539026    0.446818   -1.489637
H     -1.274487    2.113355   -2.316445
