71

C     -5.205969    2.765942    0.746826
C     -2.802766   -2.687909    0.919272
C      5.460167   -1.751495   -1.742870
C      1.802836    1.081690    1.555420
C     -5.126710   -0.523287   -0.100112
C     -1.763720   -1.500839   -1.094890
C      8.358951    1.416931    0.528219
C     -4.189649    1.214634   -2.414749
C     -5.116325    2.052972   -1.564065
C     -2.852983    0.955287   -1.801775
C     -3.302687   -0.637842    2.193762
C      4.336589   -0.444269    0.688029
C      2.950729   -0.961518    0.878186
C     -3.977624    0.607642    1.771573
C      0.570285   -0.786742    0.433154
C     -0.548759    0.128945    0.151751
C     -4.872546    1.853730   -0.117548
C     -2.338688   -1.259530    1.252169
C      5.578931   -0.268778   -1.472215
C      4.419109    0.249121   -0.652236
C     -2.858159    0.623949   -0.343804
C      6.808210   -0.072665   -0.659760
C      1.878402    0.029168    0.473450
C     -4.231435    0.570672    0.281726
C     -1.929971   -0.493166    0.059111
O      7.554834   -1.022816   -0.306658
O      7.193385    1.200014   -0.246194
O      3.219919   -0.023019   -1.326197
O      2.200017    0.541940   -0.755490
H     -5.666418    3.683587    0.422358
H     -5.027706    2.623148    1.796027
H     -3.302850   -2.766347   -0.042250
H     -3.574172   -2.984987    1.690822
H     -2.006394   -3.431582    1.010213
H      4.427038   -2.068038   -1.949903
H      5.919975   -2.297104   -0.893844
H      6.080842   -1.979225   -2.636920
H      1.287367    2.000664    1.210111
H      2.799817    1.377131    1.906565
H      1.235391    0.699418    2.427930
H     -6.175373   -0.155284   -0.314073
H     -5.281430   -1.189882    0.800776
H     -4.870215   -1.176223   -0.918820
H     -1.391177   -2.453780   -0.666236
H     -0.982261   -1.181145   -1.812163
H     -2.666072   -1.695331   -1.650864
H      9.240795    1.543125   -0.123899
H      8.219233    2.364066    1.085242
H      8.494001    0.618629    1.295381
H     -4.023200    1.819866   -3.355613
H     -4.694041    0.287109   -2.802430
H     -6.156350    1.661662   -1.759713
H     -5.134341    3.106224   -1.865881
H     -2.211106    1.859043   -2.039910
H     -2.374613    0.156640   -2.435244
H     -2.855698   -0.419391    3.213130
H     -4.113245   -1.383832    2.456608
H      5.023803   -1.328022    0.673981
H      4.609593    0.219900    1.523487
H      2.811049   -1.278140    1.950723
H      2.817910   -1.885817    0.268196
H     -3.328431    1.489131    1.962746
H     -4.941333    0.685217    2.345260
H      0.741969   -1.561209   -0.325758
H      0.516083   -1.190189    1.464938
H     -0.621782    0.926261    0.917598
H     -0.392266    0.680867   -0.818679
H     -1.407570   -1.446514    1.862275
H      5.623386    0.313078   -2.391927
H      4.578000    1.340435   -0.530754
H     -2.442581    1.558081    0.165033
