81

C     -7.691481    1.765018   -2.966820
C     -4.737069   -2.604444    3.502074
C      5.669068   -2.058760    2.451536
C     -3.542540   -0.201834   -2.761567
C     -4.331402   -2.462352   -0.889819
C      8.172802   -0.975685    0.195699
C      2.283521    0.849157    1.668903
C      5.764215    2.788486   -1.979205
C      2.989856    2.737131   -0.302965
C     -0.534518    0.859015    2.693474
C     -6.608336    0.695074   -2.743636
C     -4.041290   -2.164764    2.183252
C      5.569398   -2.144155    0.979047
C     -4.197928    0.589149   -1.683951
C     -4.936557   -1.300593   -0.138489
C      6.898340   -0.307968   -0.175019
C      1.595979    0.374182    0.465998
C      5.806718    1.509815   -1.227991
C      3.339127    1.554718   -1.170883
C     -0.784939    0.220969    1.357135
C     -5.428429    1.305598   -2.110151
C     -5.086558   -1.675895    1.277051
C      5.711518   -0.879916    0.219273
C      6.973397    0.874298   -0.893214
C      2.302272    0.481616   -0.837679
C      0.146534    0.686650    0.276518
C     -4.249814   -0.013144   -0.321699
C      4.620524    0.891554   -0.801229
C     -2.210139    0.460299    0.993338
O     -5.504166    2.540901   -1.930649
O     -6.257683   -1.558698    1.737035
O      8.079872    1.366810   -1.242770
O      2.032503   -0.330589   -1.696745
O     -0.298178   -0.057741   -0.885658
O     -2.843251    1.342469    1.616629
O      4.608200   -0.214499   -0.131106
O     -2.859672   -0.234639    0.022980
H     -8.070112    2.026269   -1.956112
H     -8.492853    1.370326   -3.608868
H     -7.184260    2.632450   -3.405788
H     -5.173493   -1.728582    4.006033
H     -5.537962   -3.301629    3.252837
H     -3.987923   -3.112628    4.128897
H      5.232534   -1.107689    2.820409
H      6.658920   -2.303067    2.883007
H      5.010568   -2.916965    2.851243
H     -4.251478   -0.670492   -3.480675
H     -2.929756    0.489321   -3.431556
H     -2.779728   -0.892617   -2.356224
H     -4.770254   -3.436492   -0.530438
H     -4.571234   -2.445447   -1.968957
H     -3.245825   -2.571613   -0.763349
H      8.035765   -1.355120    1.236450
H      8.442043   -1.803121   -0.462010
H      8.960428   -0.184085    0.294129
H      3.347680    1.089006    1.533248
H      2.327435    0.039765    2.475301
H      1.772352    1.701047    2.215466
H      4.937054    2.863556   -2.710242
H      5.767867    3.692101   -1.291286
H      6.704162    2.896136   -2.562931
H      3.717334    3.030042    0.442700
H      2.849512    3.661527   -0.999381
H      2.003714    2.621110    0.118310
H     -1.489521    0.740953    3.342190
H     -0.448604    1.959525    2.624717
H      0.209889    0.329703    3.276337
H     -7.101535   -0.110327   -2.210157
H     -6.369480    0.290834   -3.762746
H     -3.307533   -1.415928    2.508080
H     -3.496446   -3.059840    1.855391
H      6.376064   -2.880342    0.648077
H      4.631569   -2.666206    0.621079
H     -3.440219    1.468486   -1.529446
H     -6.006435   -1.250404   -0.561783
H      1.575762   -0.796573    0.613653
H      3.318287    1.795110   -2.206120
H     -0.731087   -0.894721    1.497807
H     -0.093331    1.720670   -0.009886
H     -4.596038    0.782484    0.371179
H     -0.223728   -1.003766   -0.557284
