81

C     -6.047462   -3.352453    0.855111
C     -5.233356    4.871367   -0.344091
C      5.569106    3.018913    0.382010
C     -3.504899   -1.861752   -1.697464
C     -6.065731    1.452381   -0.114024
C      8.191053    1.163197    0.063522
C      0.383790   -1.847939   -1.461802
C      6.065834   -2.986656   -1.527170
C      3.245309   -2.613311    1.240208
C     -0.857005    1.476113    1.500710
C     -6.111683   -1.825600    0.875361
C     -4.449185    3.936658    0.561477
C      5.761904    1.885886    1.369876
C     -4.269212   -1.057622   -0.665165
C     -4.594466    1.366581    0.037882
C      6.994476    0.260524   -0.041021
C      1.003053   -1.414394   -0.206841
C      5.910851   -1.708309   -0.806598
C      3.523591   -2.101012   -0.200104
C     -0.204211    0.810584    0.218116
C     -5.648954   -1.377859   -0.494513
C     -4.074704    2.739396   -0.284964
C      5.809795    0.594102    0.604204
C      7.065763   -0.901376   -0.758408
C      2.425573   -1.035795   -0.300321
C      0.235938   -0.493241    0.682992
C     -3.847675    0.396943   -0.847528
C      4.795009   -1.286339   -0.135994
C     -1.334492    0.827937   -0.788912
O     -6.480749   -1.323407   -1.352218
O     -3.342883    3.007799   -1.208234
O      8.129031   -1.246119   -1.365518
O      2.778204    0.116150   -0.457434
O     -0.844855   -1.271296    1.177779
O     -1.168782    1.145452   -1.992954
O      4.759104   -0.174386    0.547573
O     -2.532423    0.507378   -0.377767
H     -6.369864   -3.787954    1.798035
H     -6.706376   -3.748616    0.045792
H     -5.003880   -3.647734    0.589258
H     -4.759696    5.843149   -0.485055
H     -6.251726    5.015046    0.100813
H     -5.328822    4.425418   -1.378275
H      5.715597    2.740654   -0.665400
H      6.208594    3.882109    0.664560
H      4.514878    3.399749    0.450947
H     -2.944534   -2.708678   -1.301270
H     -4.313884   -2.332129   -2.346070
H     -2.945197   -1.233062   -2.420016
H     -6.399315    2.506615    0.200812
H     -6.456129    1.370516   -1.136581
H     -6.566008    0.831118    0.646628
H      8.909031    0.795130    0.795843
H      8.673869    1.087617   -0.957112
H      7.875547    2.220551    0.223336
H      0.983711   -2.722594   -1.858547
H      0.362179   -1.017016   -2.197780
H     -0.628734   -2.264682   -1.279878
H      6.844140   -2.860932   -2.331819
H      5.176182   -3.410180   -1.979250
H      6.451831   -3.784258   -0.805743
H      2.789350   -3.640661    1.191822
H      2.673155   -1.936414    1.862086
H      4.235886   -2.796985    1.754159
H     -1.414723    2.332360    1.092301
H     -0.054415    1.792871    2.161700
H     -1.552668    0.715835    1.895698
H     -5.404444   -1.446221    1.652559
H     -7.165191   -1.555431    1.061411
H     -3.471372    4.466305    0.770010
H     -4.950877    3.662098    1.480056
H      4.842697    1.855577    1.999286
H      6.689443    2.041210    1.907785
H     -3.676092   -1.335384    0.307342
H     -4.263751    1.155419    1.070238
H      1.050449   -2.401024    0.441473
H      3.521710   -2.805479   -0.963762
H      0.591504    1.483156   -0.072824
H      0.888023   -0.403461    1.620854
H     -3.904671    0.729245   -1.881637
H     -0.500064   -2.211351    1.308903
