45

C      3.447440   -0.242174   -1.178421
C      3.212351   -0.744846    1.190393
C     -4.047043   -1.355473   -1.256280
C     -1.476956    2.463214   -0.640099
C      0.001686    2.205682    1.296072
C      1.216656    1.320507    1.490684
C     -2.714031   -1.085150    0.969614
C     -1.244555   -0.805083    1.206170
C     -1.843554   -0.177243   -0.962947
C      0.738620   -2.458532   -1.022415
C      2.965332    0.285133    0.145285
C     -2.855966   -0.853267   -0.474655
C     -1.086416    1.553481    0.527953
C      1.576411    0.826268    0.105650
C      0.541914   -0.117723   -0.422952
C     -0.842549    0.156362    0.102946
N      0.845538   -1.485606   -0.237531
O      0.274599   -2.427077   -2.324409
H      2.693926    0.000892   -1.944055
H      3.654501   -1.345852   -1.126575
H      4.406389    0.214422   -1.508245
H      2.922474   -1.780945    0.886029
H      4.332188   -0.805947    1.333967
H      2.798850   -0.529826    2.176956
H     -3.813987   -2.331835   -1.721426
H     -4.933074   -1.446972   -0.597985
H     -4.301757   -0.573589   -2.015666
H     -1.167593    3.511349   -0.435534
H     -0.981037    2.161426   -1.578523
H     -2.578698    2.493226   -0.774777
H     -0.296293    2.553494    2.304351
H      0.376426    3.120663    0.767191
H      2.060661    1.951494    1.829337
H      1.051690    0.521281    2.215538
H     -3.340091   -0.310219    1.499164
H     -3.009079   -2.102358    1.289540
H     -0.644053   -1.716343    1.158771
H     -1.199896   -0.306695    2.218909
H     -1.754188    0.099944   -2.012064
H      1.042370   -3.445463   -0.648193
H      3.632127    1.165257    0.388338
H     -2.002930    1.545518    1.190265
H      1.612383    1.755777   -0.535281
H      0.481588    0.070968   -1.535934
H      0.247625   -1.528139   -2.779605
