127

C      8.638895    2.117685    2.583313
C      1.171728   -6.551439    0.301106
C      0.893221    0.182313   -0.160179
C     -1.110158   -0.643507   -1.480749
C     -5.501927    1.500782    3.822930
C     -5.563323    2.853245    1.790774
C     -2.525530    8.962406   -1.826317
C      5.643066   -5.953885   -4.607139
C      7.842102    3.138374    3.342457
C      6.870763    3.874672    2.445638
C      5.944816    2.871514    1.856321
C      5.867048    2.725473    0.565476
C      4.999983    1.777376   -0.134779
C      4.961822    1.675189   -1.444877
C     -0.070733    2.331211   -2.099291
C      0.234273    1.118054   -2.423972
C     -0.957015    4.248716   -0.899445
C     -3.079673    2.907972   -0.851002
C     -3.121195    5.323573   -1.282836
C      2.863715   -3.078599   -1.030747
C      3.754646   -2.953641   -3.279206
C     -3.275534   -1.938840    1.313223
C     -3.317144   -3.951588   -0.088301
C      0.938997   -3.397443    0.568978
C     -5.488367   -0.878337    1.500377
C     -3.158910    1.162002    0.842619
C      0.605324   -5.705485    1.391562
C     -2.405715    4.247320   -1.036663
C      3.098971   -2.412130   -2.295304
C     -3.588070   -3.431582    1.305284
C     -0.397945    2.818665   -0.794814
C      1.348224   -3.206719   -0.874491
C     -4.213832   -1.151330    2.232712
C     -2.385639    2.390750    0.425775
C     -0.080869   -4.437210    0.843273
C     -6.091691    0.462532    1.685727
C      4.129804    0.760815   -2.193083
C     -2.456502    6.596089   -1.428294
C      4.357495   -4.278270   -3.307104
C     -2.309079   -5.025909   -0.161931
C      2.490724   -1.003321   -2.380599
C      0.297656    0.014486   -1.493554
C     -5.192030    1.496727    2.315268
C     -3.741082    1.149589    2.206720
C      1.089396   -1.180981   -2.118222
O      1.510749   -5.377590    2.389320
O     -4.946391   -3.588134    1.666301
O     -6.541586    0.924398    0.436151
O      4.181734    0.780789   -3.459572
O     -1.217858    6.737822   -1.331312
O      4.340512   -5.099822   -2.375038
O     -2.770090   -6.215689   -0.230801
O     -3.029916    2.056487    2.992101
O      0.418320   -1.279637   -3.376420
O     -3.214560    7.737671   -1.690290
O      5.023371   -4.712096   -4.457728
O     -1.084786    2.152728    0.117516
O     -0.981060   -4.737120   -0.157745
O      3.266183   -0.152482   -1.590103
O     -3.599810   -0.096175    2.833763
O      0.631479   -2.266878   -1.453153
H      7.979431    1.236507    2.362007
H      9.550357    1.829584    3.107745
H      8.919649    2.522310    1.577448
H      1.488538   -7.525372    0.704361
H      0.380354   -6.695690   -0.467005
H      2.042196   -6.039719   -0.137684
H      1.446096    1.087458    0.066313
H      1.704058   -0.604129    0.062972
H      0.143019   -0.120588    0.633154
H     -1.911356    0.078944   -1.450820
H     -1.220117   -1.318734   -0.614110
H     -1.211387   -1.347228   -2.368423
H     -4.954241    0.717722    4.349742
H     -6.596302    1.274405    3.898119
H     -5.370258    2.505505    4.227714
H     -6.265274    3.323982    2.507193
H     -4.705807    3.551534    1.721260
H     -6.128043    2.794795    0.834698
H     -1.444121    8.852060   -1.630174
H     -2.740194    9.455110   -2.800358
H     -2.937304    9.644801   -1.024851
H      6.135957   -5.915537   -5.622821
H      6.422614   -6.198535   -3.886718
H      4.909405   -6.790966   -4.702434
H      8.515404    3.871694    3.813135
H      7.295864    2.624151    4.160020
H      6.367134    4.714216    2.949002
H      7.507066    4.344851    1.644242
H      5.338956    2.259522    2.473292
H      6.493671    3.357719   -0.045898
H      4.368900    1.143949    0.459874
H      5.621588    2.337541   -1.985745
H     -0.069077    3.059075   -2.944289
H      0.471232    0.863414   -3.494219
H     -0.492179    4.634324   -1.857336
H     -0.595753    4.851653   -0.038455
H     -2.814315    2.228639   -1.655553
H     -4.150292    3.015948   -0.712489
H     -4.185594    5.235490   -1.371311
H      3.356616   -4.032300   -0.875589
H      3.156142   -2.453969   -0.139387
H      3.837885   -2.301064   -4.178712
H     -2.272121   -1.844328    1.714274
H     -3.418660   -1.618521    0.258435
H     -4.306166   -4.264808   -0.497588
H     -3.020736   -3.099905   -0.777567
H      1.876309   -3.686572    1.125814
H      0.557306   -2.432208    1.011191
H     -5.352210   -1.091098    0.394128
H     -6.274486   -1.648232    1.772678
H     -3.911541    0.837069    0.106637
H     -2.346091    0.353990    0.861906
H     -0.189886   -6.324916    1.902974
H     -3.020849   -3.992653    2.044233
H      0.631858    3.129079   -0.307215
H      1.121457   -4.200221   -1.373428
H     -4.460220   -1.881393    3.062690
H     -2.395349    3.183163    1.216651
H     -0.651858   -4.073091    1.758660
H     -7.024875    0.379430    2.318044
H      2.699820   -0.716635   -3.435457
H      1.098908   -4.988163    3.175566
H     -5.134809   -4.519796    1.942509
H     -7.491080    1.155487    0.435425
H     -3.396557    2.030287    3.904600
H      1.024322   -1.150621   -4.122693
