74

C      5.734223   -1.588736    0.424647
C     -4.903441    1.575079   -1.196738
C     -4.502673   -0.724740   -1.843625
C      2.801011    0.737505   -1.846137
C      1.344627   -0.447903    1.472379
C     -7.273870    1.047747    0.900941
C      7.277088    0.693722   -0.012342
C     -3.566391   -2.043857    0.763764
C     -2.034186    1.037496   -0.987544
C     -0.795351    1.317275   -0.157996
C     -4.956719   -1.587147    0.944422
C      0.775726   -1.939913   -0.628404
C      2.138758   -1.559332   -1.112967
C     -1.380295   -1.606189    0.090713
C      2.143358    1.666618    0.619351
C      5.610299    1.163577    1.571367
C      5.105654   -0.353783   -0.234063
C     -2.605505   -1.067228    0.220566
C     -0.147531   -1.067778   -0.371827
C     -3.001663    0.297866   -0.117216
C      0.271333    0.376011   -0.572691
C      3.633612    1.382303    0.581134
C     -5.276069   -0.239637    0.428144
C      3.727844   -0.137065    0.289086
C     -4.386245    0.249432   -0.690064
C      2.603238   -0.228781   -0.686021
C      1.537246    0.398350    0.222485
N     -6.666497   -0.052480    0.150355
N      5.870386    0.827594    0.200415
O      4.270446    1.555872    1.781228
H      4.943723   -2.334159    0.628115
H      6.320997   -1.311678    1.328439
H      6.460050   -2.084725   -0.257660
H     -5.961831    1.385994   -1.540801
H     -4.836517    2.391387   -0.462943
H     -4.355860    1.817609   -2.117327
H     -3.559558   -0.692953   -2.430912
H     -5.333591   -0.428353   -2.523673
H     -4.680286   -1.739211   -1.480951
H      2.465405    1.747713   -1.571733
H      2.296246    0.383302   -2.778686
H      3.865416    0.850792   -2.134288
H      1.732496    0.046474    2.377781
H      1.761416   -1.449907    1.430505
H      0.230053   -0.546187    1.678056
H     -6.538644    1.748700    1.304276
H     -7.919736    1.654565    0.179597
H     -7.945080    0.723875    1.706179
H      7.469259    0.063959   -0.910662
H      7.662673    1.719059   -0.260251
H      7.832826    0.351485    0.880071
H     -3.533529   -2.954627    0.142964
H     -3.116295   -2.389905    1.756175
H     -1.810258    0.490601   -1.918976
H     -2.512669    1.990030   -1.304485
H     -0.428232    2.352694   -0.430364
H     -0.987299    1.342275    0.924291
H     -5.691663   -2.302715    0.463799
H     -5.208741   -1.628107    2.035974
H      0.572679   -2.990148   -0.497858
H      2.061539   -1.549077   -2.239761
H      2.879237   -2.354980   -0.873774
H     -1.377391   -2.663691    0.425366
H      1.847731    2.581698    0.097507
H      1.871820    1.885717    1.704690
H      5.953719    0.432203    2.305264
H      6.217531    2.097047    1.768961
H      5.212375   -0.496886   -1.305334
H     -3.065845    0.852192    0.863803
H      0.439252    0.479594   -1.666946
H      4.133491    1.940329   -0.212485
H     -5.052827    0.491658    1.288263
H      3.509363   -0.663375    1.214654
H     -7.171861   -0.922145    0.536430
