46

C      6.315919    0.959483   -0.762903
C     -2.955096   -3.662988   -1.305378
C     -4.500530    1.485316    2.042903
C     -4.336859    0.354886    1.404779
C      1.804165   -1.013588    0.683027
C      2.781949   -1.467312    1.541315
C     -5.716779    1.753891    2.845666
C     -2.100832    0.899966    0.432077
C     -3.059716   -1.189379   -0.049521
C      3.509494    0.214548   -0.504834
C     -0.149463    2.434085   -1.647918
C     -3.160377    0.048460    0.605671
C      2.201587   -0.171154   -0.333263
C     -1.000431    0.569806   -0.336425
C      0.262063    1.341256   -0.661049
C      4.104311   -1.086530    1.380062
C      4.493346   -0.237709    0.353081
C     -1.970709   -1.525364   -0.814542
C      1.165080    0.325123   -1.263444
C     -0.911275   -0.623052   -0.963470
O     -5.805762    2.861884    3.431638
O     -0.688513    1.910022   -2.798078
O      5.088403   -1.546668    2.248510
O      5.818810    0.107066    0.240511
O     -1.884631   -2.758449   -1.459358
O      0.293199   -0.721890   -1.677500
H      7.282936    1.416261   -0.497307
H      6.324274    0.472463   -1.759502
H      5.576117    1.806638   -0.858635
H     -2.931570   -4.141313   -0.296288
H     -3.934845   -3.214886   -1.522424
H     -2.804119   -4.494678   -2.045149
H     -3.733963    2.238627    1.983863
H     -5.112842   -0.391153    1.472554
H      0.758083   -1.296188    0.785824
H      2.474356   -2.131863    2.344604
H     -6.498030    1.029217    2.926674
H     -2.105045    1.889935    0.913865
H     -3.887801   -1.896948    0.065771
H      3.814957    0.888225   -1.320900
H     -0.902501    3.065585   -1.148370
H      0.700399    3.073455   -1.917482
H      0.591898    1.777003    0.282878
H      1.630804    0.717975   -2.189341
H     -1.653176    2.095533   -2.851590
H      4.812713   -2.165595    2.999399
