60

C     -4.845064   -0.323659    1.037399
C     -2.993677   -2.263312    0.084873
C      1.156457    0.370193    2.962998
C      5.017638    0.196628    0.135898
C     -1.075761    1.453885    1.232786
C     -1.702968   -1.295391   -2.543287
C     -3.620050    0.043391    0.154891
C      0.262770    2.840478   -0.900428
C      0.301124    3.698733   -1.890179
C      3.057862   -0.003487    1.546628
C      2.893500   -0.255698   -0.957800
C     -2.489016   -0.853576    0.422707
C      1.525207   -0.148081    1.648390
C      1.476156   -0.644615   -0.624452
C     -0.434868    1.565942   -1.016692
C      1.024247    0.390965    0.391617
C     -1.142354   -0.680548   -0.103941
C      0.597597   -0.890434   -1.740532
C      3.670105   -0.514132    0.316826
C     -0.434582    0.624252    0.140288
C     -0.787915   -1.344943   -1.403249
O     -0.314532    3.462270   -3.115468
O     -0.985749    1.378901   -2.109021
O      0.936754   -0.747172   -2.926520
O      3.880075   -1.899212    0.421197
O     -0.563349   -2.751358   -1.209583
H     -4.547521   -0.529146    2.060793
H     -5.552913    0.531658    1.060066
H     -5.413667   -1.158818    0.549240
H     -2.286994   -3.053089    0.299922
H     -3.889235   -2.499851    0.742625
H     -3.368654   -2.360053   -0.932088
H      0.108658    0.156963    3.251889
H      1.733909   -0.275657    3.715315
H      1.512829    1.385116    3.232152
H      5.467951    0.421052    1.118762
H      4.756243    1.196520   -0.313261
H      5.640377   -0.397175   -0.532412
H     -1.605925    2.355935    0.803382
H     -1.693692    0.934561    1.936560
H     -0.208546    1.970216    1.748590
H     -2.618691   -0.726915   -2.494622
H     -1.085991   -0.983674   -3.450062
H     -2.061077   -2.313233   -2.917014
H     -3.488975    1.113468    0.390136
H     -4.079545    0.040833   -0.846103
H      0.752667    3.107448    0.014542
H      0.827242    4.629029   -1.763451
H      3.475452   -0.535751    2.421485
H      3.241495    1.092897    1.630286
H      2.991656    0.783066   -1.304439
H      3.264647   -0.988259   -1.717464
H     -2.431533   -0.900663    1.559856
H      1.364743   -1.269794    1.677815
H      1.619196   -1.669852   -0.135467
H      1.582845    1.361273    0.226976
H     -0.529240   -1.360548    0.615190
H     -1.268418    3.747752   -3.321502
H      3.377219   -2.306551    1.155951
H      0.003884   -2.908781   -0.438994
