94

C      6.388952   -0.588603   -2.364473
C      4.294538   -1.723703   -3.262565
C     -4.743597    4.388967    2.710177
C     -2.616237    5.581807    2.703336
C      2.949559   -3.301184    4.144238
C      3.298149   -0.807596    4.229859
C      3.242228    0.199075    0.943122
C      2.445088   -1.615837   -0.436374
C     -4.271479    2.507220   -1.439201
C     -4.262757    1.624875    0.843562
C      4.188539    0.480499   -2.126840
C     -3.838692    4.967608    0.516130
C     -0.630329   -3.968011   -1.495140
C      2.752419    0.651351   -2.243439
C     -2.634223    4.406392   -0.134236
C     -0.524741   -5.354194   -1.696756
C      1.492997   -1.799797    2.867021
C      1.008839   -0.534360    2.366621
C     -2.903440   -4.096507   -2.027141
C      0.518770    0.988691   -1.539567
C     -1.011429    2.716845   -0.643129
C      4.880668   -0.547336   -2.560463
C     -3.778051    4.954051    2.008042
C      2.514629   -1.922106    3.675760
C     -1.804872   -3.294371   -1.647614
C      1.929765    0.798643   -1.004486
C     -2.316209    2.960740    0.107959
C     -1.604767   -6.109772   -2.062561
C     -2.798276   -5.450735   -2.224461
C     -1.224713   -0.982214   -0.572583
C     -1.985848   -1.895017   -1.367162
C     -0.185996   -1.291328    0.392587
C     -1.597505    0.315505   -0.631520
C      0.165562    1.045112    0.814013
C      2.063678   -0.220504    0.062208
C     -3.386977    2.005804   -0.353917
C     -0.497554    1.323188   -0.478543
C      0.838314   -0.318604    0.888733
O     -1.493690   -7.492654   -2.262513
O     -3.912156   -6.184116   -2.595842
O     -3.055014   -1.407996   -1.937315
O     -0.150655   -2.452357    0.848532
O      0.179000    1.828245    1.742096
O     -2.858261    0.763207   -0.816696
H      6.718352    0.471252   -2.236947
H      6.593417   -1.129305   -1.425863
H      6.840404   -1.056468   -3.237427
H      4.173998   -2.578547   -2.557394
H      3.357647   -1.493964   -3.800278
H      5.026453   -2.086087   -4.017766
H     -5.611309    3.918107    2.213424
H     -4.698385    4.378662    3.788761
H     -2.861356    5.949664    3.713941
H     -2.180339    6.392550    2.076328
H     -1.841260    4.773531    2.785488
H      3.308585   -3.251883    5.187910
H      3.793197   -3.674353    3.532761
H      2.085289   -3.993193    4.148430
H      2.625567    0.050426    4.411974
H      3.815770   -1.105997    5.189628
H      4.147982   -0.476029    3.565839
H      3.886010    0.935413    0.412780
H      2.948572    0.702532    1.864989
H      3.912504   -0.640190    1.193044
H      2.069215   -1.839879   -1.432710
H      3.541518   -1.778461   -0.400345
H      2.071637   -2.383404    0.313471
H     -4.289295    1.787494   -2.295628
H     -5.319359    2.528644   -1.077363
H     -4.066917    3.538394   -1.795327
H     -5.258201    2.069800    0.773019
H     -3.736483    1.860175    1.790782
H     -4.439342    0.517638    0.895977
H      4.762905    1.295524   -1.656364
H     -4.797907    4.452503    0.239136
H     -3.962954    6.032209    0.199816
H      0.294365   -3.465631   -1.271012
H      2.272717   -0.030152   -2.990760
H      2.623090    1.664901   -2.765146
H     -1.752196    4.973457    0.328032
H     -2.539103    4.688156   -1.212492
H      0.434425   -5.838969   -1.559369
H      1.003311   -2.726947    2.596450
H      1.379284    0.383581    2.912599
H     -0.104800   -0.503216    2.734199
H     -3.853545   -3.570058   -2.153187
H      0.568172    1.832988   -2.263743
H      0.282389    0.052236   -2.093341
H     -1.093968    2.950886   -1.723651
H     -0.268836    3.421027   -0.219541
H      2.225113    1.789608   -0.556372
H     -2.098120    2.826013    1.177971
H     -2.262516   -8.064066   -2.532365
H     -4.789923   -5.699496   -2.711815
