74

C     -5.457381    1.652473   -1.516003
C      5.787527   -0.595690   -0.546840
C      4.405475   -2.326565    0.435738
C     -2.058536    0.840184    0.810058
C     -1.312270   -0.789561   -2.536841
C      4.231315   -0.076460    3.884648
C     -6.942719    0.476791    0.424140
C      3.735660    1.902423    0.956603
C      2.274161   -1.301498   -0.589860
C      1.099045   -0.948051   -1.454107
C      4.958038    1.253681    1.495163
C     -0.389793    2.062824   -0.804128
C     -1.727220    1.774795   -1.444877
C      1.624406    1.526718    0.192257
C     -2.150614   -1.698343   -0.383107
C     -5.721901   -1.217514   -0.693134
C     -4.725192    0.914695   -0.385516
C      2.840581    1.005292    0.198893
C      0.370298    1.061754   -0.402139
C      3.295554   -0.235078   -0.417165
C     -0.000219   -0.383316   -0.539649
C     -3.550868   -1.207744   -0.164532
C      4.764669   -0.236514    1.623513
C     -3.587269    0.117613   -0.947997
C      4.502211   -0.833583    0.260502
C     -2.239403    0.612194   -0.650637
C     -1.370316   -0.586300   -1.060497
N      3.746346   -0.577789    2.594829
N     -5.646586   -0.071511    0.187621
O     -4.551001   -2.005934   -0.632059
H     -5.958624    2.577399   -1.107378
H     -4.693152    2.032327   -2.219268
H     -6.245970    1.053064   -1.965369
H      5.854979    0.432383   -0.920502
H      5.775661   -1.327586   -1.386580
H      6.617491   -0.886137    0.132227
H      5.269282   -2.608506    1.109110
H      4.610524   -2.875995   -0.512338
H      3.508401   -2.674317    0.949777
H     -2.976240    0.805666    1.415948
H     -1.634405    1.868978    0.963450
H     -1.350631    0.132736    1.305505
H     -0.403798   -0.337845   -3.017489
H     -2.167316   -0.454496   -3.114243
H     -1.242871   -1.906751   -2.701588
H      3.842453   -0.759204    4.663892
H      3.867177    0.961441    4.064086
H      5.324668   -0.139071    3.892086
H     -6.835387    1.502903    0.832520
H     -7.457951   -0.138393    1.176215
H     -7.530261    0.440121   -0.502219
H      3.934755    2.835253    0.366437
H      3.133116    2.248200    1.849013
H      2.796714   -2.158293   -1.105990
H      1.860099   -1.613946    0.397926
H      1.447205   -0.171447   -2.175268
H      0.733594   -1.844245   -1.993240
H      5.811835    1.456405    0.851767
H      5.240954    1.627871    2.521992
H     -0.042277    3.071463   -0.667065
H     -2.367593    2.655307   -1.445076
H     -1.486120    1.497220   -2.489073
H      1.486818    2.490473    0.714603
H     -1.673493   -1.817673    0.631800
H     -2.076347   -2.656856   -0.893986
H     -6.594787   -1.847127   -0.443691
H     -5.817093   -0.929634   -1.762203
H     -4.444420    1.691985    0.328030
H      3.642790    0.040811   -1.458861
H      0.110069   -0.949210    0.406922
H     -3.757302   -1.011646    0.920817
H      5.722755   -0.671763    1.976810
H     -3.825811   -0.115793   -1.985488
H      3.786511   -1.636062    2.681305
