35

C      3.391927    1.615449    1.265526
C     -4.155450   -0.529716    1.842017
C      2.124547    1.630228    1.807632
C     -3.134391   -0.866919    2.690829
C     -3.872484   -0.430787    0.469830
C      3.579393    0.948929    0.044603
C      1.099593    0.993141    1.126435
C     -1.855032   -1.110782    2.264499
C     -2.156589   -0.579387   -1.365661
C      2.866541   -0.336705   -1.946666
C     -2.607915   -0.676522    0.079965
C      2.583600    0.312449   -0.636391
C      1.299910    0.343561   -0.057178
C     -0.911553    0.322365   -1.260650
C     -1.527925   -1.022260    0.908569
C      0.261951   -0.474708   -0.748273
O      4.224952   -0.089039   -2.315337
O     -0.682298    0.659025   -2.625197
O     -0.312197   -1.244835    0.354447
H      4.204171    2.106060    1.805102
H     -5.181664   -0.335784    2.121996
H      1.907926    2.143209    2.765280
H     -3.354454   -0.952205    3.755708
H     -4.637980   -0.165934   -0.263556
H      4.583617    0.942203   -0.386913
H      0.124246    1.049912    1.625491
H     -1.052083   -1.370020    2.963860
H     -2.904651   -0.138691   -2.005474
H     -1.824295   -1.585449   -1.656864
H      2.141710   -0.177750   -2.715875
H      2.877193   -1.463552   -1.715739
H     -1.132666    1.173303   -0.626293
H      0.671740   -1.200867   -1.439893
H      4.131149    0.692992   -2.958414
H     -0.770539   -0.180911   -3.167417
