48

C     -4.857302   -1.114414    0.057174
C     -0.271350    2.584440    1.850124
C      1.921194   -3.891724    1.375144
C      3.024781   -3.774273    2.177789
C      1.390415   -2.733318    0.799783
C      1.331737    2.495996   -3.353672
C      0.077656    2.573856   -2.802640
C      3.531413   -2.506325    2.357150
C      1.886723    0.604066   -1.982328
C      3.524460    1.498315   -3.577137
C     -3.210368    0.261891   -0.561895
C     -2.323674    1.910700    0.965739
C      2.231210    1.521248   -2.950270
C      0.609053    0.676060   -1.414117
C     -0.274415    1.629067   -1.807264
C      1.917007   -1.489020    0.997967
C      0.282646   -0.317597   -0.388785
C     -0.965947   -0.066457    0.395339
C     -1.868515    0.959178   -0.111154
N      4.561155    1.481300   -4.093531
N      1.431924   -0.431583    0.477145
N      3.009490   -1.412260    1.798585
O     -1.669969   -1.310296    0.399661
O      3.537946   -0.152774    1.993999
O     -3.684206   -0.506366    0.470329
O     -1.494597    2.905085    1.332718
O     -1.524538    1.682370   -1.238230
H     -5.290621   -1.756637    0.855134
H     -4.600656   -1.777970   -0.810321
H     -5.606531   -0.355643   -0.297295
H     -0.361679    1.960197    2.773043
H      0.239395    3.562703    2.168619
H      0.431008    2.082349    1.160236
H      1.493352   -4.855630    1.205918
H      3.510675   -4.588945    2.665046
H      0.521349   -2.912199    0.180395
H      1.633793    3.199218   -4.113507
H     -0.650202    3.296761   -3.073683
H      4.418644   -2.360757    2.992530
H      2.582816   -0.167472   -1.656406
H     -3.062306   -0.243288   -1.514898
H     -3.893544    1.118121   -0.720790
H     -3.330786    2.354099    0.705221
H     -2.581930    1.325041    1.913650
H      0.210895   -1.299961   -0.945968
H     -0.688648    0.049847    1.462199
H     -1.531981   -1.753724   -0.490385
H      4.433029    0.046728    2.373638
