49

C     -4.882084    0.395298    0.687390
C     -3.461152   -1.487759    1.299614
C     -4.003087   -1.081689   -1.047152
C     -2.281894    1.718402   -1.411703
C     -2.346516    1.895419    1.628911
C      5.521979    1.521283   -0.143214
C      4.187479    1.337522    0.160009
C      6.294479    0.479250   -0.611055
C      4.354047   -0.921545   -0.458697
C      1.077621   -2.061033   -0.661740
C      1.917550   -1.167324    1.369417
C     -0.004600    0.111215   -0.892775
C      3.565612    0.108460    0.010263
C      1.339082   -0.585277   -0.848158
C      5.693514   -0.746135   -0.765350
C      1.826522   -2.420988    0.571906
C      2.152616   -0.121290    0.322325
C     -3.675504   -0.431202    0.259666
F      6.439697   -1.793252   -1.227567
O      2.247355   -3.530204    0.812471
O     -0.736446   -0.069864    0.257791
Si    -2.228658    0.732893    0.146815
H     -5.793584   -0.222425    0.523416
H     -4.795427    0.575636    1.787604
H     -4.922887    1.340745    0.148037
H     -3.088567   -1.102791    2.256839
H     -2.835042   -2.298515    0.890288
H     -4.467393   -1.940601    1.523850
H     -4.578655   -0.381084   -1.705273
H     -3.119796   -1.501049   -1.561543
H     -4.715184   -1.916376   -0.829780
H     -1.437849    2.450218   -1.391656
H     -2.102905    1.062163   -2.282500
H     -3.215186    2.289844   -1.550676
H     -1.985299    1.364275    2.535100
H     -1.674929    2.762809    1.465222
H     -3.387811    2.248746    1.739711
H      6.008775    2.480188   -0.026793
H      3.591937    2.155192    0.524333
H      7.355652    0.615583   -0.854666
H      3.950191   -1.898281   -0.601408
H      1.406877   -2.652105   -1.539156
H      0.016146   -2.291625   -0.479292
H      0.922257   -0.994696    1.814396
H      2.728219   -1.207113    2.116924
H      0.153849    1.210455   -1.088710
H     -0.569364   -0.265051   -1.774247
H      1.876575   -0.438969   -1.786128
H      1.681790    0.829591    0.686942
