26

C     -1.005910    2.580744    0.080346
C      0.145493    1.809004    0.023374
C     -2.238397    1.962315    0.176100
C     -1.501865   -1.605873    0.123970
C     -2.927317   -1.563881    0.617621
C      1.866519   -0.919373   -1.174215
C      3.879959   -0.133693    0.113621
C      2.580846    0.195752   -0.493911
C      0.134529    0.459020    0.053360
C     -1.101877   -0.169285    0.148226
C      1.335446   -0.390931    0.134331
C     -2.260427    0.564855    0.211522
O      4.891049    0.523017   -0.048958
O     -3.359366   -0.272284    0.309497
H     -1.002471    3.685012    0.088016
H      1.085374    2.362941   -0.050939
H     -3.144615    2.561476    0.236406
H     -0.949187   -2.216420    0.826793
H     -1.484830   -2.037662   -0.905117
H     -3.580534   -2.336753    0.122585
H     -2.946189   -1.709661    1.751509
H      2.241294   -1.988313   -1.093148
H      1.318557   -0.657696   -2.107780
H      3.944034   -1.015222    0.746803
H      2.592702    1.187421   -0.994974
H      1.487181   -0.874511    1.104962
