23

C      2.370658   -0.080554   -0.433782
C     -0.796228   -1.642892   -0.442414
C     -1.751408   -0.709291    0.193047
C      0.964216   -0.357197    0.062425
C     -1.220290    0.590129    0.640117
C      0.176723    0.899972    0.246097
O      3.035604    0.626799    0.551102
O     -2.819415   -0.490511   -0.708315
O     -2.037272    1.651343    0.184413
O      0.740595    1.757143    1.189253
O      0.329546   -1.078399   -0.974520
H      2.334526    0.509025   -1.369537
H      2.925652   -1.018631   -0.623144
H     -0.468763   -2.441281    0.277715
H     -1.303368   -2.216015   -1.270386
H     -2.234650   -1.251692    1.058582
H      0.969072   -0.976972    0.972821
H     -1.276711    0.663773    1.766001
H      0.170849    1.428816   -0.746012
H      3.852486    0.177740    0.885897
H     -3.676342   -0.370613   -0.203093
H     -1.708249    1.990605   -0.692068
H      1.422768    2.338702    0.811794
