24

C      3.664192    0.113050   -0.011612
C     -3.308403    0.691748    0.012542
C     -3.253073   -0.516772    0.685678
C     -2.128234    1.243383   -0.456716
C     -2.031833   -1.134103    0.869206
C      0.453740    1.030142   -0.683610
C     -0.915258    0.618212   -0.267662
C     -0.868770   -0.568282    0.394263
C      1.363441    0.183152    0.148829
C      0.523570   -1.026551    0.465274
O      0.734739   -1.990106   -0.533984
O      2.457331   -0.249647   -0.589004
H      3.818028   -0.285814    0.992949
H      4.464491   -0.244587   -0.710752
H      3.708155    1.237309    0.028770
H     -4.255947    1.172180   -0.130670
H     -4.154627   -0.969210    1.061634
H     -2.170031    2.197199   -0.988231
H     -2.021853   -2.086866    1.404440
H      0.558641    0.847849   -1.765132
H      0.626649    2.119085   -0.453595
H      1.654438    0.739065    1.063839
H      0.773271   -1.477302    1.447485
H      0.307342   -1.643136   -1.352789
