55

C      4.646437    1.095939    1.904138
C     -7.540659    1.313963    1.555060
C      5.320524   -0.173102    1.506682
C     -6.709650    0.673847    0.468011
C      5.988735   -0.222076    0.194250
C     -5.536338   -0.027642    1.182678
C      5.173637   -0.084134   -1.029052
C     -4.725321   -0.655636    0.085731
C      4.438033    1.200473   -1.123499
C      3.678006    1.307469   -2.446421
C      2.719488    0.176385   -2.575221
C      1.720930    0.210933   -1.437755
C     -3.562633   -1.402076    0.680040
C      0.713399   -0.886921   -1.549031
C     -2.673204   -0.525478    1.460289
C     -0.240802   -0.843724   -0.395131
C     -1.993744    0.578534    0.739510
C     -1.007097    0.425904   -0.367201
O     -2.325247    0.564914   -0.675582
H      3.537018    1.009395    1.937283
H      4.906122    1.307782    3.007546
H      5.018145    2.010426    1.403145
H     -8.597329    1.385650    1.195888
H     -7.119512    2.344805    1.718597
H     -7.449894    0.708141    2.470276
H      4.583094   -1.032518    1.601546
H      6.100313   -0.433606    2.279386
H     -7.249071   -0.122261   -0.069982
H     -6.249310    1.415314   -0.216444
H      6.776174    0.608550    0.132914
H      6.613275   -1.170053    0.097549
H     -4.910019    0.739008    1.685015
H     -5.931237   -0.786530    1.876968
H      5.839759   -0.244220   -1.927491
H      4.454345   -0.965935   -1.057599
H     -5.412227   -1.392982   -0.462368
H     -4.465538    0.066851   -0.705545
H      3.700294    1.296869   -0.333863
H      5.145082    2.066307   -1.141875
H      3.151609    2.298675   -2.402925
H      4.384737    1.387815   -3.299687
H      3.226417   -0.813148   -2.649043
H      2.172245    0.314785   -3.544660
H      2.270235    0.032943   -0.489573
H      1.267404    1.205320   -1.461731
H     -3.100958   -1.954013   -0.166998
H     -3.936781   -2.233346    1.353634
H      0.073889   -0.775546   -2.476784
H      1.176186   -1.896369   -1.579201
H     -1.903542   -1.140448    2.042673
H     -3.266853   -0.067727    2.305410
H     -0.841299   -1.774335   -0.452577
H      0.412609   -0.867945    0.533203
H     -2.057095    1.613350    1.188157
H     -0.402783    1.374568   -0.568339
