62

C     -3.123352   -2.647429    1.559251
C      7.992520    0.246679   -0.183428
C      6.463644    1.968645   -1.045559
C      6.744833   -0.165728   -2.263407
C     -6.278319    2.525261   -1.059666
C      2.958219   -1.398059    3.079259
C      1.612659   -1.307426    2.723832
C      3.923611   -0.788244    2.315917
C     -2.399878    1.911451   -0.354703
C     -4.968355   -1.463525   -0.499767
C     -3.894168    2.044296    0.014094
C     -6.479523   -1.151969   -0.388523
C     -0.945831   -1.550389    1.517302
C     -0.659594    0.577698    0.608356
C      2.268651    0.019859    0.827582
C     -2.306240   -1.510280    1.187806
C      1.295494   -0.591614    1.591896
C     -2.017408    0.613033    0.281580
C     -0.129203   -0.505941    1.225461
C      3.601585   -0.061546    1.167091
C     -4.270341   -0.373714    0.199960
C     -4.484479    0.859721   -0.698567
C     -6.766992    0.092616   -1.122101
C     -2.890601   -0.421270    0.553639
C      5.589968   -0.119150   -0.081759
C      6.666417    0.472720   -0.895676
N      4.605764    0.559394    0.392494
N     -5.845396    1.133673   -0.958218
O     -7.786953    0.226935   -1.862642
O      5.661486   -1.484614    0.175233
H     -2.628863   -3.106254    2.492624
H     -3.140222   -3.510844    0.910561
H     -4.108153   -2.367334    2.041714
H      8.082542   -0.834648    0.085297
H      8.053532    0.860262    0.746145
H      8.847048    0.510478   -0.824903
H      6.063674    2.384508   -0.088034
H      5.775981    2.217822   -1.858581
H      7.443772    2.473558   -1.222162
H      6.370937    0.544630   -3.041471
H      6.070228   -1.052840   -2.272938
H      7.757961   -0.512029   -2.468737
H     -7.352354    2.557310   -1.387421
H     -6.255330    3.034731   -0.076128
H     -5.693089    3.056875   -1.811062
H      3.196696   -1.964537    3.972879
H      0.851611   -1.794611    3.338134
H      4.968463   -0.847478    2.575383
H     -2.250388    1.893671   -1.433161
H     -1.906734    2.763833    0.110675
H     -4.803951   -1.421418   -1.618866
H     -4.956162   -2.467843   -0.106690
H     -3.944797    1.936428    1.116250
H     -4.233338    3.012988   -0.357836
H     -6.969897   -1.978004   -0.983838
H     -6.808676   -1.146056    0.650058
H     -0.541052   -2.444858    2.017978
H      0.024274    1.393904    0.391743
H      1.952865    0.574841   -0.060728
H     -4.874001   -0.126908    1.125478
H     -3.964338    0.682769   -1.674081
H      4.833540   -2.034029    0.374080
