55

C     -6.921632    2.328276    0.842941
C      7.982915    2.416095    0.087563
C     -6.489803    0.913143    0.512024
C      6.621570    1.849233   -0.293500
C     -5.741939    0.909527   -0.784625
C      6.459529    0.447635    0.219482
C     -5.259734   -0.429957   -1.225725
C      5.106461   -0.087790   -0.194244
C     -4.326365   -1.113411   -0.294466
C     -3.059713   -0.345715   -0.030459
C     -2.132589   -1.045036    0.906804
C     -1.673779   -2.385602    0.446590
C      4.018422    0.753688    0.371882
C     -0.944565   -2.253579   -0.869749
C      2.673216    0.227741   -0.021181
C      0.265913   -1.354886   -0.744905
C      2.462761   -1.144287    0.510101
C      1.235344   -1.903851    0.273703
O      1.434242   -1.252228    1.465696
H     -6.932148    2.442694    1.946482
H     -7.959625    2.526761    0.505499
H     -6.201034    3.084590    0.452985
H      8.125409    3.334865   -0.481024
H      8.726517    1.634725   -0.084350
H      7.956940    2.636578    1.165024
H     -7.377424    0.286986    0.529798
H     -5.755410    0.627465    1.311683
H      6.493404    1.863492   -1.388231
H      5.889108    2.553363    0.157001
H     -4.887283    1.613550   -0.715963
H     -6.414195    1.305763   -1.573803
H      6.500823    0.458214    1.348686
H      7.269841   -0.224933   -0.101806
H     -4.762665   -0.338989   -2.213474
H     -6.125922   -1.119281   -1.396214
H      5.082815   -1.153177    0.057132
H      5.015673   -0.036116   -1.308978
H     -4.015670   -2.073744   -0.783844
H     -4.831176   -1.430627    0.650364
H     -3.274996    0.658009    0.412161
H     -2.573053   -0.136384   -1.001084
H     -2.634276   -1.202894    1.912950
H     -1.278636   -0.382427    1.151364
H     -2.460540   -3.149373    0.419574
H     -0.908179   -2.794578    1.171389
H      4.046388    0.780092    1.493270
H      4.070549    1.799480   -0.011987
H     -1.600583   -1.787012   -1.660063
H     -0.676619   -3.246641   -1.294589
H      2.590651    0.283241   -1.132719
H      1.855092    0.891410    0.346032
H      0.779345   -1.284507   -1.728125
H     -0.101613   -0.343325   -0.484730
H      3.371781   -1.688644    0.825758
H      1.286456   -3.001272    0.325899
