39

C     -1.291919   -1.566155    0.325967
C     -3.431596    0.442111   -2.048994
C      2.746707   -0.936012    1.459254
C      0.871392    0.800456   -1.975452
C      1.374647   -0.804813    1.411459
C     -0.545182    0.271465   -2.059149
C     -2.607258    0.982952    1.628192
C     -1.212637    0.473123    1.649241
C      2.868093    0.034891   -0.662828
C      1.499342    0.183571   -0.749018
C      3.531856   -0.512090    0.406684
C      0.724371   -0.242575    0.306591
C     -1.229458    0.679417   -0.779272
C     -3.355827    0.711786    0.400522
C      4.984642   -0.648946    0.452823
C     -0.751754   -0.152450    0.365017
N     -2.655768    0.608301   -0.842228
O     -4.602228    0.574802    0.462259
O      5.817003   -0.247744   -0.558570
O      5.492624   -1.163818    1.479531
H     -1.272986   -1.967050    1.362087
H     -0.651741   -2.152857   -0.360564
H     -2.327253   -1.626534   -0.022921
H     -4.411598   -0.061394   -1.838094
H     -3.549515    1.365626   -2.622166
H     -2.878871   -0.300746   -2.693031
H      3.246967   -1.377933    2.329580
H      0.803243    1.906598   -1.809787
H      1.468783    0.563096   -2.878105
H      0.825045   -1.158876    2.272292
H     -0.462278   -0.848469   -2.076774
H     -1.064409    0.589655   -2.966411
H     -3.154379    0.516719    2.498220
H     -2.586134    2.087498    1.774019
H     -0.470540    1.281926    1.900893
H     -1.047252   -0.300380    2.454443
H      3.467979    0.373158   -1.498130
H     -0.961864    1.743497   -0.548458
H      6.799756   -0.121805   -0.351146
