73

C     -6.796442    3.013016    1.467507
C      5.388133   -1.469084    1.087855
C      7.765868    1.655027    0.453778
C     -6.255877    1.575285    1.296276
C     -1.640279   -1.565525    3.069887
C     -3.005510   -1.402166    3.073680
C     -0.860954   -1.199256    1.981864
C     -3.573710   -0.861777    1.959234
C     -7.255044   -1.428362   -2.703553
C     -5.923787   -1.157035   -3.302643
C      1.441577   -1.174234   -1.211753
C      3.748180    0.750208    1.762842
C     -1.299771    0.218391   -1.370851
C      2.810769   -1.280731   -1.226167
C     -2.659760    0.397262   -1.403663
C      5.054304    1.290261    1.292705
C      6.202188   -0.345333   -2.388792
C      5.744414   -1.353812   -1.323445
C     -5.409457    1.551953    0.060799
C      1.581917    0.165714    0.714921
C     -5.695016   -0.781776   -0.730794
C     -6.312574   -0.419019   -2.088486
C      0.783870   -0.443586   -0.234437
C      2.949023    0.066744    0.711078
C     -0.666429   -0.307603   -0.240800
C     -1.420743   -0.652641    0.852718
C     -2.820918   -0.484533    0.856592
C      3.569908   -0.665688   -0.271635
C     -3.410917    0.038753   -0.270988
C      5.456048    0.766051   -0.039088
C      7.240886    0.486112   -1.677012
C      5.049840   -0.707260   -0.184665
N      6.817459    0.977401   -0.399954
N     -4.825322    0.294590   -0.299430
O      8.362816    0.721470   -2.158815
H     -5.962775    3.691742    1.701000
H     -7.538227    3.041105    2.291808
H     -7.308167    3.311331    0.543760
H      4.496005   -1.962736    1.530129
H      6.091853   -2.320808    0.857357
H      5.897178   -0.857806    1.831617
H      7.486812    2.723518    0.559529
H      7.793859    1.136024    1.430743
H      8.787025    1.632404    0.038678
H     -5.737310    1.273384    2.227603
H     -7.150358    0.939407    1.177105
H     -1.163091   -1.991946    3.940808
H     -3.637268   -1.678409    3.904419
H      0.209208   -1.348345    1.994069
H     -4.638726   -0.708976    1.842789
H     -8.150814   -1.088329   -3.252885
H     -7.447837   -2.351308   -2.111565
H     -5.934367   -0.617196   -4.280040
H     -5.072596   -1.857973   -3.190825
H      0.827727   -1.664144   -1.972342
H      3.833606    0.058880    2.639108
H      3.105193    1.593715    2.149183
H     -0.702157    0.488717   -2.233614
H      3.307441   -1.862072   -2.008562
H     -3.210157    0.795044   -2.237694
H      5.858295    1.166052    2.076227
H      4.970029    2.412460    1.192007
H      6.687084   -0.926822   -3.190093
H      5.373429    0.283954   -2.720055
H      6.728484   -1.741342   -0.911230
H      5.267273   -2.232459   -1.759255
H     -4.623099    2.373867    0.096734
H     -6.089518    1.945418   -0.761917
H      1.112300    0.767206    1.510921
H     -6.580895   -0.905598   -0.049393
H     -5.152081   -1.721836   -0.885108
H     -6.701056    0.629215   -2.187238
H      4.833013    1.305844   -0.807237
