57

C     -5.026011    1.248987    0.165695
C     -5.166774   -2.708052    1.705169
C      9.630173   -0.055694   -0.218930
C      9.336707   -1.417571   -0.241483
C      8.595516    0.855496   -0.217363
C      8.005411   -1.775006   -0.261159
C     -2.844376    0.798594    2.130779
C     -0.800931    1.825648   -1.524217
C     -2.040097    1.222373   -1.547592
C     -3.716330   -0.397854    1.995547
C      3.351927   -0.654742   -0.296454
C      2.317928    0.259122   -0.294850
C     -5.622678   -1.123061   -1.768081
C     -4.491982   -0.167932   -1.738311
C     -0.900585    1.755981    0.861218
C     -2.144429    1.150356    0.845923
C     -0.233414    2.091150   -0.296849
C      7.270230    0.503165   -0.236907
C     -2.699487    0.890928   -0.385354
C      6.976364   -0.846256   -0.259278
C     -3.912765   -0.888235    0.601784
C      4.679791   -0.272052   -0.276419
C      2.648779    1.598565   -0.272219
C     -5.910030   -1.788795   -0.495911
C      6.232843    1.412053   -0.235424
C     -4.032338    0.241755   -0.384306
N      5.679892   -1.198141   -0.278550
N      3.950112    1.938360   -0.253082
N     -5.019712   -1.799782    0.582855
N      4.934646    1.051034   -0.254828
O     -7.011402   -2.378215   -0.370430
O      6.500099    2.651507   -0.214914
S      1.361042    2.867256   -0.268306
H     -5.519953    0.915518    1.083778
H     -5.861044    1.446040   -0.570332
H     -4.551228    2.265959    0.294847
H     -5.012442   -2.240361    2.676299
H     -6.213140   -3.105722    1.688981
H     -4.484659   -3.599179    1.592665
H     10.656065    0.247599   -0.203305
H     10.118414   -2.170510   -0.243571
H      8.852179    1.904627   -0.199683
H      7.772454   -2.836917   -0.278767
H     -2.022461    0.634012    2.867579
H     -3.393840    1.702464    2.527156
H     -0.283736    2.085844   -2.462324
H     -2.462315    1.025816   -2.534154
H     -3.234051   -1.242978    2.571631
H     -4.686326   -0.230782    2.549048
H      3.126356   -1.715085   -0.314026
H      1.274378   -0.025577   -0.310382
H     -5.474833   -1.941597   -2.533493
H     -6.584454   -0.631452   -2.099847
H     -4.786791    0.747703   -2.295662
H     -3.663760   -0.610501   -2.366833
H     -0.460613    1.961527    1.849816
H     -3.002315   -1.477390    0.299558
