49

C     -2.320053   -1.766721    0.037799
C     -5.486114   -0.197737    0.670328
C     -1.735379    1.898127    1.504276
C      1.639449   -0.344276    0.178252
C      0.379088   -0.644547   -0.298520
C     -2.967043    0.982535    1.463939
C     -3.442302    0.021582   -2.526559
C      6.500599   -1.785419    0.184375
C      5.186394    1.411187   -0.930469
C     -2.080411   -0.360402   -1.955825
C      5.792293   -2.016233    1.361783
C      5.927967    1.569232   -2.087044
C      0.691603    1.375597    1.481816
C     -0.575315    1.079191    1.007213
C      1.805127    0.683282    1.085002
C      5.338647    0.341060   -0.164339
C     -0.745496    0.055162    0.102681
C      6.251950   -0.637509   -0.520894
C     -3.134114    0.572014    0.045623
C     -4.544172   -0.445227   -1.628086
C      4.659095    0.041180    1.036667
C     -2.051117   -0.342186   -0.464789
N      4.925509   -1.088187    1.700802
N     -4.412228   -0.019761   -0.254197
O     -5.501065   -1.140583   -2.010313
S      6.930784    0.036092   -2.061068
S      3.427550    1.116923    1.739233
H     -1.611332   -2.427096   -0.538346
H     -3.347285   -2.081077   -0.154888
H     -1.999683   -1.795403    1.081875
H     -5.119674   -0.353288    1.726628
H     -6.201930    0.646931    0.627168
H     -6.090811   -1.123446    0.448440
H     -1.916180    2.671747    0.736347
H     -1.558402    2.287002    2.508899
H      2.523382   -0.886366   -0.130449
H      0.272796   -1.448093   -1.003497
H     -3.852109    1.531317    1.788282
H     -2.706336    0.129614    2.141717
H     -3.506378    1.126170   -2.662152
H     -3.571028   -0.452590   -3.501898
H      7.233769   -2.485643   -0.179602
H      4.462810    2.267273   -0.721527
H     -1.874025   -1.387357   -2.349558
H     -1.328573    0.307148   -2.419824
H      5.982178   -2.900812    1.907603
H      5.978543    2.291224   -2.813307
H      0.837337    2.179853    2.194283
H     -3.068314    1.508519   -0.582049
