49

C     -2.708841   -1.667897    0.638824
C     -4.301289   -0.705578   -2.589991
C     -0.320117    0.616559   -1.610247
C      0.825843   -0.216390    2.443942
C     -0.492816   -0.322717    2.042384
C     -1.547003   -0.214968   -1.922938
C     -4.624887    0.608180    1.025896
C      6.126544    1.796882   -1.317950
C      5.043131   -1.463258   -0.109351
C     -3.185828    0.630651    1.376519
C      5.484675    2.678925   -0.437344
C      5.732620   -2.230527   -1.044743
C      1.351988    0.417566    0.234121
C      0.039584    0.314823   -0.177803
C      1.777171    0.163996    1.516876
C      5.155405   -0.139417   -0.176920
C     -0.908159   -0.062977    0.741008
C      5.928726    0.436107   -1.142043
C     -2.597138    0.264022   -0.952792
C     -4.935481    0.143846   -0.328202
C      4.532266    0.803941    0.683084
C     -2.356137   -0.216284    0.443463
N      4.732037    2.099543    0.500850
N     -3.934655   -0.114385   -1.330312
O     -6.147683   -0.037121   -0.624374
S      6.555965   -1.000869   -2.036209
S      3.471983    0.302907    2.023391
H     -2.678861   -1.873671    1.729689
H     -1.911104   -2.326969    0.191428
H     -3.659685   -1.961776    0.184294
H     -3.462678   -1.340614   -2.997425
H     -4.517101    0.052395   -3.378203
H     -5.165244   -1.415495   -2.479753
H     -0.644926    1.682433   -1.610297
H      0.517386    0.422935   -2.287299
H      1.159578   -0.415851    3.452530
H     -1.231122   -0.626474    2.796184
H     -1.272100   -1.274497   -1.769901
H     -1.918376   -0.008852   -2.953658
H     -5.194236   -0.060648    1.736186
H     -5.085590    1.623695    1.188712
H      6.769400    2.158686   -2.127075
H      4.438527   -2.047169    0.637360
H     -2.801748    1.672999    1.300905
H     -3.013093    0.329467    2.447259
H      5.639812    3.719524   -0.576823
H      5.784007   -3.287775   -1.172935
H      2.090114    0.717262   -0.503390
H     -2.540869    1.374834   -0.941681
