34

C     -3.408450   -1.701126   -0.658991
C     -4.208013   -0.877810    0.106426
C     -2.128767   -1.372707   -1.032676
C     -3.639353    0.322275    0.485620
C     -1.606432   -0.168829   -0.631906
C      3.471019   -0.132944   -1.705553
C      2.513715   -0.005441   -0.689457
C     -0.857010    2.704426   -0.302195
C      4.598953   -1.789676   -0.399260
C     -2.361069    0.685120    0.130389
C      4.510150   -1.025125   -1.555842
C     -1.825657    1.983037    0.565047
C     -0.461049    2.178076    1.084248
C      2.615625   -0.756583    0.428328
C      0.604038    0.087188    1.697372
Cl     5.746253   -1.251376   -2.765448
N      3.661261   -1.626286    0.532058
N      0.568008    1.195053    1.079119
N      1.739846   -0.739225    1.543751
S     -0.786378   -0.388326    2.749780
H     -3.837895   -2.645285   -0.964891
H     -5.225996   -1.164018    0.390736
H     -1.532879   -2.074843   -1.648931
H     -4.275306    0.981160    1.096505
H     -0.584104    0.075609   -0.942353
H      3.396911    0.457077   -2.591012
H      1.712962    0.677636   -0.803109
H     -0.925761    3.807065   -0.431405
H     -0.438510    2.187867   -1.183280
H      5.421762   -2.495829   -0.279877
H     -2.596137    2.657938    1.049853
H     -0.301235    3.007984    1.838609
H      1.913858   -1.393919    2.365996
H     -1.474361   -1.398163    2.025297
