45

C      4.080977    1.449640   -0.579920
C     -2.997519    0.713136    1.285254
C     -2.022517   -0.945028   -1.839003
C     -0.758569    2.592506   -0.690020
C     -0.745708    2.024955    1.649202
C     -0.799999   -1.848341    1.650197
C     -0.639664   -2.829127   -0.563632
C      1.607677    1.345390   -0.158952
C      1.681180   -1.393496   -0.253299
C      4.087185   -1.441715   -0.666690
C      2.819015    0.694746   -0.385915
C     -2.079361    0.650000    0.066245
C     -1.966676   -0.796618   -0.311339
C      2.850357   -0.675719   -0.432218
C      0.429118    0.653446    0.022273
C      0.495108   -0.699742   -0.029381
C     -0.808938    1.371672    0.255156
C     -0.744098   -1.478581    0.159714
O      5.159597   -0.827885   -0.832365
H      3.836311    2.536422   -0.480451
H      4.476078    1.266383   -1.580004
H      4.762596    1.191312    0.253997
H     -3.775303   -0.096734    1.211750
H     -3.575123    1.660091    1.319046
H     -2.480399    0.561695    2.223288
H     -2.510142   -1.906599   -2.114249
H     -1.008846   -0.875673   -2.244365
H     -2.634096   -0.089232   -2.197882
H     -0.130507    3.387686   -0.253291
H     -1.791073    2.991899   -0.763455
H     -0.452822    2.285188   -1.707361
H     -0.075428    2.933475    1.595454
H     -0.298813    1.380448    2.399563
H     -1.742986    2.435868    1.914104
H      0.085747   -2.525125    1.806113
H     -0.646029   -0.982028    2.304975
H     -1.684753   -2.457574    1.881297
H     -1.680284   -3.225259   -0.580646
H     -0.053952   -3.548671    0.050452
H     -0.207260   -2.698696   -1.567207
H      1.659364    2.420212   -0.135810
H      1.698040   -2.473662   -0.288372
H      4.079129   -2.507528   -0.696672
H     -2.648248    1.141933   -0.750968
H     -2.848370   -1.365070    0.055387
