37

C     -0.421333   -1.853414   -0.390716
C     -3.394299    1.011179   -0.937903
C      0.676563    1.605923   -1.547237
C      3.474978   -0.488219    0.842896
C      2.136004   -0.815520    0.948921
C     -0.603281    0.799241   -1.625927
C     -2.054160   -1.312128    1.768209
C     -0.652426   -0.697809    1.791062
C      2.931437    1.133356   -0.762016
C      1.610961    0.820153   -0.666450
C      3.893216    0.496819   -0.019423
C      1.192891   -0.158189    0.189713
C     -1.063503    0.570079   -0.228325
C     -2.951161   -0.374987    1.029789
C     -0.229782   -0.557147    0.349667
N     -2.456255    0.398943   -0.040553
O      5.225350    0.850264   -0.150994
O     -4.164220   -0.322911    1.422261
H     -0.220653   -2.672384    0.356351
H      0.339589   -1.992500   -1.186232
H     -1.425895   -1.977780   -0.805124
H     -3.712401    0.281620   -1.726774
H     -4.324328    1.284196   -0.357844
H     -3.034712    1.964746   -1.366991
H      1.113339    1.833319   -2.520519
H      0.425286    2.524413   -0.953668
H      4.222483   -0.995635    1.431937
H      1.896148   -1.604967    1.652750
H     -0.389176   -0.174246   -2.141357
H     -1.306475    1.342080   -2.266141
H     -2.377027   -1.465366    2.796418
H     -2.042173   -2.271593    1.185166
H      0.036828   -1.282179    2.395172
H     -0.782942    0.351321    2.177905
H      3.274266    1.910183   -1.440133
H     -0.770570    1.478149    0.381890
H      5.927433    0.360988    0.414218
