36

C      5.131492    0.632243   -1.846567
C      5.221901   -0.371206   -0.876885
C      3.903647    1.225599   -2.061075
C      4.097822   -0.740202   -0.166639
C      2.794812    0.830421   -1.329466
C     -3.646638    0.679170   -0.920915
C     -1.169983    0.873037    1.688194
C     -2.318444   -2.157113    0.335023
C      2.865454   -0.156560   -0.370110
C     -2.981919    0.205295    0.346113
C     -1.861932   -0.754792    0.043578
C     -2.195369    1.456330    0.753253
C     -0.718636   -0.363521    0.930822
C     -2.564884    1.553574   -1.500546
C      1.680974   -0.564615    0.397419
O     -2.662132   -2.208495    1.697941
O     -2.524373    1.911721   -2.711325
O      1.796707   -1.466529    1.258486
O     -1.667347    1.866986   -0.475626
O      0.443475    0.000628    0.213766
H      6.007507    0.906194   -2.386545
H      6.191193   -0.826180   -0.720902
H      3.860668    1.998929   -2.816535
H      4.172163   -1.512575    0.578290
H      1.827507    1.301457   -1.502020
H     -4.533831    1.294405   -0.652840
H     -3.891123   -0.162782   -1.580058
H     -1.704332    0.595029    2.622623
H     -0.334702    1.559301    1.898879
H     -3.183473   -2.386374   -0.315970
H     -1.469340   -2.850538    0.165541
H     -3.668856   -0.128494    1.119974
H     -1.569715   -0.700416   -1.028261
H     -2.847021    2.200279    1.234105
H     -0.539617   -1.160767    1.668514
H     -1.941654   -2.579441    2.252317
