76

C      5.008070    0.801347   -1.837387
C      7.716534    0.333320    0.446142
C     -6.294875    3.446543    3.431342
C     -1.671046   -2.418970    3.556995
C     -1.550245   -1.119444    3.104417
C     -2.080900   -3.400335    2.667993
C     -5.321310    0.685077   -3.751193
C     -4.587513    0.116075   -4.793101
C     -1.828348   -0.774966    1.789013
C     -2.350068   -3.042885    1.376628
C     -5.000793    0.429702   -2.431455
C     -3.531227   -0.710174   -4.475259
C     -4.263171    1.319681    0.416764
C     -5.150324   -0.716441    1.188438
C      4.596273   -2.113996   -0.148194
C     -4.934879    1.999325    1.409140
C     -5.836821   -0.032105    2.200853
C      0.809179   -0.605512   -1.136840
C      1.889485    0.249708   -0.998158
C      5.384999   -1.230002    0.777127
C      4.898640    2.996001    0.288157
C      3.821089    2.082733   -0.156179
C      2.206549   -2.441260   -0.626755
C     -2.234743   -1.732971    0.897346
C     -4.358781   -0.059459    0.287092
C      3.284263   -1.564555   -0.491735
C     -5.731089    1.334534    2.315296
C      0.952226   -1.970586   -0.951830
C     -3.938259   -0.401242   -2.127490
C      3.145094   -0.208972   -0.673839
C     -3.206988   -0.968060   -3.148229
C      5.174234    0.215395    0.608241
C      6.229666    2.382651    0.472891
C     -3.606428   -0.663533   -0.791635
C     -2.547995   -1.489801   -0.497852
C     -1.849345   -2.029831   -1.554450
C      4.297920    0.669613   -0.511045
N     -2.164485   -1.780652   -2.837137
N      6.426465    0.972330    0.506638
O      7.219743    3.139722    0.604707
O     -6.409340    2.045334    3.322097
S     -0.454689   -3.087948   -1.112620
H      5.730039    0.011780   -2.033351
H      4.203419    0.700523   -2.623460
H      5.430677    1.810123   -2.009115
H      7.783324   -0.355442   -0.439138
H      8.482789    1.122337    0.228709
H      8.022678   -0.148734    1.387551
H     -5.252151    3.751304    3.715447
H     -6.465558    3.940302    2.436553
H     -7.063040    3.877417    4.100067
H     -1.451567   -2.694154    4.590185
H     -1.232287   -0.330108    3.772193
H     -2.188431   -4.429137    2.974626
H     -6.167958    1.347010   -3.962667
H     -4.872110    0.342531   -5.797756
H     -1.738064    0.236844    1.418795
H     -2.672859   -3.845433    0.703483
H     -5.550700    0.853838   -1.610218
H     -2.956119   -1.157881   -5.258127
H     -3.645170    1.887531   -0.279113
H     -5.229162   -1.788685    1.094571
H      4.451188   -3.102847    0.331831
H      5.226297   -2.318675   -1.062190
H     -4.863785    3.085531    1.518558
H     -6.448385   -0.562813    2.893565
H     -0.176135   -0.188967   -1.396659
H      1.778583    1.315311   -1.142312
H      6.456167   -1.477100    0.629412
H      5.163971   -1.579854    1.826560
H      4.576821    3.547037    1.221187
H      5.067671    3.838105   -0.447351
H      3.382675    2.532304   -1.097537
H      3.030704    2.037568    0.646278
H      2.337419   -3.516004   -0.477455
H      4.692289    0.603050    1.555785
