45

C      4.325805    1.282153   -0.425036
C     -3.094507    1.343633    0.471845
C     -3.100051   -1.382345   -0.047543
C     -0.359723    2.548503    1.250938
C     -0.967921    2.268950   -1.090808
C     -0.734875   -2.160622    1.383504
C     -0.669971   -2.615202   -1.005263
C      1.831388    1.296205   -0.127184
C      1.769363   -1.403223   -0.242278
C      4.211403   -1.562329   -0.540463
C      3.010199    0.601625   -0.299152
C     -1.775288    0.639229    0.611584
C     -1.823422   -0.602209   -0.254635
C      2.993956   -0.779741   -0.359895
C      0.602789    0.677894   -0.008855
C      0.594881   -0.698759   -0.070375
C     -0.632037    1.491820    0.175193
C     -0.670142   -1.500254    0.043985
O      4.131358   -2.814108   -0.587752
H      4.112754    2.370054   -0.593442
H      4.818751    1.171146    0.582211
H      4.933567    0.843002   -1.229842
H     -2.963696    2.456387    0.388437
H     -3.738401    1.178816    1.370116
H     -3.605593    1.029618   -0.457246
H     -3.847396   -0.769588    0.512620
H     -3.568517   -1.684239   -1.006778
H     -2.910760   -2.310427    0.560458
H     -1.312752    3.016650    1.563456
H      0.232089    3.340423    0.739583
H      0.217607    2.127810    2.092477
H     -0.050753    2.444752   -1.683725
H     -1.759215    1.751858   -1.672175
H     -1.378456    3.265177   -0.823876
H      0.317549   -2.316009    1.740863
H     -1.250143   -1.595841    2.158844
H     -1.180058   -3.190948    1.335535
H      0.006335   -3.415927   -0.694822
H     -1.710813   -3.006816   -1.017238
H     -0.453905   -2.196040   -2.009495
H      1.857666    2.385416   -0.080894
H      1.784830   -2.497860   -0.293810
H      5.175569   -1.102329   -0.634444
H     -1.620968    0.348570    1.665660
H     -1.748495   -0.274874   -1.307720
