60

C     -4.166851    2.627226   -0.055345
C     -2.707636    3.102646    1.861575
C     -1.936639    3.493425   -0.480148
C     -3.169252   -2.455392   -1.908511
C     -4.725674   -1.841835   -0.114674
C     -3.030880   -3.533713    0.316046
C      4.502063    1.439659   -1.634126
C      3.058575    1.396493   -2.025127
C      4.857380    0.609810   -0.430243
C      2.280872    1.249026   -0.721674
C     -2.931728    0.140459    0.051010
C     -0.872806    1.022823    0.749046
C     -1.061516   -1.297264    0.345022
C      4.597351   -2.659760    0.278785
C     -2.188713    1.223353    0.418020
C     -2.401430   -1.141296    0.002504
C     -0.284111   -0.232940    0.719249
C      3.908869   -0.447580   -0.033490
C      2.468039   -0.229843   -0.354891
C      5.579106   -2.428908    1.343802
C     -2.756226    2.591011    0.439210
C     -3.288225   -2.243558   -0.412616
O      5.788598   -3.385106    2.152269
O      6.307726   -1.282360    1.570170
O      4.363574   -1.650856   -0.597430
S      1.431716   -0.477163    1.127215
H     -4.211598    2.368238   -1.154148
H     -4.501795    3.685239   -0.019455
H     -4.876076    2.046403    0.537099
H     -1.867564    2.653959    2.422960
H     -2.563513    4.215078    1.805359
H     -3.678592    2.867422    2.382521
H     -2.567774    4.097526   -1.130352
H     -1.285233    2.838100   -1.103964
H     -1.304561    4.123124    0.165433
H     -2.206571   -2.958092   -2.084759
H     -3.985530   -3.122328   -2.238383
H     -3.200296   -1.475168   -2.380579
H     -5.376474   -2.745727    0.026531
H     -5.181916   -1.265011   -0.941171
H     -4.783528   -1.261206    0.818184
H     -3.355412   -3.439566    1.386323
H     -3.720004   -4.291849   -0.130920
H     -2.002195   -3.900248    0.235537
H      5.099578    1.066765   -2.494194
H      4.791805    2.523317   -1.490470
H      2.796203    2.355469   -2.508438
H      2.847681    0.520321   -2.664350
H      4.971715    1.318812    0.422889
H      5.907653    0.210830   -0.593696
H      1.205773    1.464901   -0.894025
H      2.743243    1.856618    0.073202
H     -3.975409    0.304210   -0.212076
H     -0.255284    1.840323    1.045305
H     -0.657242   -2.281778    0.307556
H      4.815575   -3.636307   -0.228858
H      3.614483   -2.876768    0.809150
H      3.946504   -0.640918    1.076889
H      2.064356   -0.813421   -1.177954
H      7.129818   -1.236624    2.163998
