51

C     -2.024531   -2.502631    1.962537
C     -3.422733   -2.026485   -0.014172
C     -1.314715   -3.209789   -0.336740
C     -2.909380    3.394644    0.685980
C     -3.364198    2.360807   -1.549721
C     -1.466104    3.805819   -1.229282
C      4.743807   -0.422396    1.415419
C      5.622316   -0.663141    0.223192
C      3.535531   -1.335221    1.151549
C     -2.058701    0.343314    0.070768
C      0.092232   -0.731127    0.178725
C     -0.081306    1.572709   -0.331267
C     -1.299769   -0.799321    0.278711
C     -1.451262    1.543304   -0.236237
C      0.715541    0.453900   -0.132956
C      4.649153   -0.975468   -0.928736
C      3.281581   -1.000639   -0.291768
C     -1.990439   -2.112627    0.526371
C     -2.308771    2.747196   -0.495188
O      4.747730   -0.011015   -1.920158
S      2.473353    0.586879   -0.424125
H     -1.084789   -2.265262    2.471285
H     -2.156747   -3.623405    2.037217
H     -2.903140   -2.012362    2.445360
H     -4.025361   -1.537369    0.770112
H     -3.407152   -1.366633   -0.929354
H     -3.745037   -3.058752   -0.263330
H     -2.073154   -3.790658   -0.901948
H     -0.751711   -3.909350    0.345135
H     -0.579490   -2.674530   -1.002868
H     -3.858866    2.873156    0.968329
H     -2.236745    3.410013    1.529450
H     -3.169801    4.453542    0.344822
H     -4.014367    1.559248   -1.190962
H     -3.977307    3.237258   -1.767815
H     -2.817840    2.020290   -2.456694
H     -0.823586    3.278761   -1.949359
H     -2.140285    4.473571   -1.845362
H     -0.856479    4.416558   -0.564311
H      5.202184   -0.689015    2.372991
H      4.408913    0.630650    1.362241
H      6.212322    0.228171   -0.087550
H      6.293140   -1.544399    0.454798
H      2.653205   -1.036801    1.728196
H      3.850403   -2.390447    1.289523
H     -3.157267    0.309469    0.158889
H      0.674384   -1.598718    0.362967
H      0.382310    2.510832   -0.546792
H      4.899533   -1.964679   -1.389632
H      2.658030   -1.818874   -0.794931
H      4.375368    0.861023   -1.553311
