57

C     -5.221203   -1.601701   -1.154094
C     -5.346409    0.073569    0.612466
C     -4.489317   -2.209362    1.147906
C     -1.895576    3.241945    0.282778
C      0.244680    2.274328    0.825452
C     -0.286303    2.762998   -1.523535
C      3.001893   -2.352618   -0.947503
C      3.789064   -1.263144   -1.635481
C      2.364751   -1.706911    0.282347
C     -2.308516   -1.707959   -0.672481
C     -1.003533   -1.386019   -0.981552
C     -2.681612    0.576193   -0.056761
C      5.658416    0.697433    0.324439
C     -3.166734   -0.710202   -0.200757
C     -1.361636    0.903807   -0.369112
C      3.763122   -0.091281   -0.671778
C     -0.520275   -0.076450   -0.831585
C      2.369077   -0.224403   -0.037478
C      6.699010    0.352674    1.355497
C     -4.559735   -1.100321    0.118716
C     -0.870732    2.265917   -0.219235
O      7.651418    1.146538    1.603458
O      6.643363   -0.844231    2.062441
O      4.758879   -0.340043    0.266100
S      1.175557    0.164809   -1.303337
H     -4.510313   -2.287127   -1.654947
H     -6.148311   -2.121806   -0.876366
H     -5.491862   -0.725436   -1.779808
H     -4.881045    0.459367    1.539491
H     -5.352468    0.842933   -0.173699
H     -6.394202   -0.252065    0.781159
H     -3.458722   -2.573842    1.291515
H     -5.102070   -3.086266    0.819158
H     -4.890242   -1.877584    2.119534
H     -2.134731    3.017964    1.328425
H     -1.433331    4.251679    0.225787
H     -2.808077    3.285087   -0.326107
H      0.234396    1.321111    1.405948
H      1.235218    2.452478    0.334275
H      0.134471    3.092250    1.565588
H      0.772573    3.112358   -1.386723
H     -0.868123    3.623254   -1.903996
H     -0.327833    1.979660   -2.321152
H      3.637631   -3.201553   -0.622001
H      2.220793   -2.696898   -1.668173
H      3.340176   -0.955321   -2.600795
H      4.799992   -1.645138   -1.824075
H      2.970185   -1.902936    1.187587
H      1.313767   -2.045590    0.381492
H     -2.687836   -2.727461   -0.788590
H     -0.372023   -2.187336   -1.343525
H     -3.376232    1.319886    0.311588
H      5.201625    1.678732    0.581403
H      6.217282    0.854126   -0.626277
H      3.890862    0.878268   -1.177701
H      2.377377    0.402104    0.850899
H      7.483425   -1.130460    2.550794
