57

C     -2.101200   -2.965393    0.390838
C     -3.559771   -2.198025   -1.379429
C     -1.236995   -2.820535   -1.918407
C     -3.726830    3.213266    0.988770
C     -2.477984    2.263283    2.866791
C     -4.406089    1.089003    1.988431
C      4.118020   -0.529997   -2.527658
C      4.918756    0.671223   -2.063848
C      2.715052   -0.391032   -1.925117
C     -2.603947   -0.056345    0.240331
C     -0.500311   -0.231317   -0.749813
C     -1.019561    1.691766    0.452838
C      4.643910    0.529186    1.326540
C     -1.706498   -0.793475   -0.517297
C     -2.276528    1.182174    0.728170
C     -0.074920    1.000793   -0.299768
C      4.069729    1.138691   -0.848558
C      2.685722    1.039794   -1.513864
C      4.764129   -0.693610    2.180140
C     -2.133979   -2.166928   -0.937381
C     -3.238703    1.935870    1.571879
O      5.186003   -0.614587    3.354037
O      4.419968   -1.942793    1.712372
O      4.150645    0.125580    0.093932
S      1.471081    1.715582   -0.542750
H     -2.645098   -3.897379    0.318431
H     -1.033148   -3.097774    0.651778
H     -2.625602   -2.289242    1.113786
H     -4.276902   -2.500816   -0.582029
H     -3.714727   -3.007201   -2.165470
H     -3.940782   -1.243431   -1.771646
H     -1.478481   -2.450072   -2.929854
H     -0.171701   -2.764766   -1.647015
H     -1.471136   -3.916594   -1.898422
H     -4.433658    3.051340    0.145952
H     -4.333831    3.699423    1.788557
H     -2.924823    3.925939    0.729651
H     -1.944320    3.224104    2.791618
H     -1.724683    1.431881    3.012295
H     -3.164707    2.185955    3.734154
H     -4.912100    1.629741    2.829583
H     -3.996160    0.106686    2.323183
H     -5.080592    0.911084    1.132046
H      4.122107   -0.529719   -3.624056
H      4.627428   -1.441395   -2.143507
H      5.017442    1.468442   -2.783784
H      5.916353    0.414661   -1.673360
H      2.046390   -0.602077   -2.814118
H      2.626708   -1.140103   -1.147733
H     -3.568804   -0.463234    0.436500
H      0.210975   -0.768009   -1.327874
H     -0.817097    2.671828    0.864460
H      3.841691    1.175074    1.800434
H      5.594320    1.065775    1.281683
H      4.373719    2.101359   -0.526014
H      2.814084    1.628304   -2.481409
H      4.987440   -2.771956    1.891001
