53

C      3.665469    0.872334   -1.730135
C      4.794348   -0.773865   -0.384672
C      2.838221   -1.510681   -1.633925
C     -3.129664    3.140814   -1.682896
C     -3.590871   -3.304289    0.124198
C     -2.948304    1.905672   -2.264412
C     -2.625371    3.414175   -0.433180
C     -3.756393   -2.318999    1.060776
C     -2.546601   -3.197633   -0.774431
C     -2.251990    0.931432   -1.583663
C     -1.927267    2.396195    0.217081
C     -2.917714   -1.238754    1.127159
C     -1.695514   -2.116984   -0.719384
C      0.295950   -0.292026   -0.440251
C     -1.714871    1.151544   -0.307345
C     -1.875898   -1.150790    0.216399
C      1.368176    0.525977    0.233114
C      0.893365    0.781077    1.647852
C     -0.504189    0.254117    1.712118
C      3.371634   -0.344545   -0.872911
C     -0.987818    0.054964    0.324193
N      2.650981   -0.057341    0.298729
O      1.015056    2.131417    1.959454
O     -1.337429    0.895207    2.586886
Cl     0.687702    0.000000    0.000000
H      4.514134    0.581014   -2.409916
H      2.828792    1.160832   -2.376310
H      4.021723    1.672090   -1.064602
H      4.700085   -1.715351    0.166245
H      5.475915   -0.790609   -1.237277
H      5.088071    0.022129    0.321807
H      3.688538   -1.933762   -2.262512
H      2.005504   -1.235294   -2.285352
H      2.583731   -2.358730   -0.958890
H     -3.676715    3.945352   -2.185143
H     -4.271632   -4.174413    0.075503
H     -3.353323    1.696158   -3.259947
H     -2.756295    4.393905    0.053385
H     -4.584442   -2.416639    1.763275
H     -2.459189   -4.002290   -1.494307
H     -2.092262   -0.061913   -2.022961
H     -1.549772    2.642014    1.171884
H     -3.066967   -0.451937    1.887465
H     -0.900428   -2.054419   -1.426678
H      0.572711   -1.344533   -0.288728
H      0.139192   -0.088580   -1.494321
H      1.374286    1.507666   -0.340724
H      1.571670    0.255090    2.355735
H     -0.384666   -0.793257    2.157226
H      2.895239   -0.566531    1.155040
H      1.318773    2.620778    1.158692
H     -0.765978    1.342211    3.272452
H     -0.687702    0.000000    0.000000
