31

C      4.781173   -2.159091    0.416108
C      0.555144    3.065644   -2.419370
C     -3.555959   -0.210278    1.468216
C     -4.585724    0.200324    0.443711
C      1.669835    0.929244   -0.042685
C      1.505887   -0.220128    0.847414
C      0.493166    0.803109   -0.534916
C      0.172356   -0.352741    0.280686
C     -0.979705   -0.187762    1.213567
C      2.472676   -1.323492    0.577248
C     -2.703864   -0.639366   -0.600870
N     -2.303963   -0.330584    0.744141
O     -0.772852    0.077552    2.412314
O      2.013866   -2.441161    0.263930
O     -2.019125   -1.221382   -1.476455
O      3.837370   -1.155946    0.659947
O     -4.004521   -0.178558   -0.782397
S     -0.440257    1.711432   -1.778656
H      4.920215   -2.851496    1.264912
H      5.765081   -1.674882    0.194810
H      4.542642   -2.768244   -0.479879
H      1.649973    2.810114   -2.437007
H      0.191506    3.280875   -3.460211
H      0.434982    3.951885   -1.752009
H     -3.507222    0.631666    2.217068
H     -3.825531   -1.162747    1.972895
H     -4.803178    1.296997    0.493966
H     -5.546059   -0.365751    0.619596
H      2.487662    1.663077   -0.247897
H      1.502849    0.094047    1.925339
H      0.051575   -1.272359   -0.375936
