27

C     -3.119743    2.108626    0.636790
C     -0.931005   -1.113946   -1.405178
C      3.652673    0.443833   -0.359161
C      2.951509    0.239453   -1.522638
C      3.049365    0.358427    0.878828
C      1.599985   -0.060975   -1.450043
C      1.702007    0.057165    0.907585
C     -2.526655    0.801934    0.332776
C      0.955391   -0.156514   -0.233494
C     -0.618823   -1.491622    0.964486
C     -0.496259   -0.477314   -0.110401
O     -3.148173   -0.265570    0.195460
O     -0.064106   -2.608755    0.801980
O     -1.309602   -1.288859    2.145912
O     -1.147653    0.715602    0.178165
H     -2.597597    2.907877    0.038923
H     -2.906961    2.385679    1.710042
H     -4.191692    2.181171    0.397481
H     -1.876397   -1.674221   -1.326977
H     -1.037004   -0.397446   -2.224073
H     -0.146391   -1.851976   -1.680065
H      4.699829    0.676753   -0.411746
H      3.393652    0.298936   -2.506851
H      3.586461    0.515906    1.792824
H      0.996002   -0.232106   -2.330440
H      1.210906   -0.013520    1.886845
H     -1.679718   -2.058537    2.692968
