36

C      4.069285   -0.111896   -0.878370
C      2.559038    0.827715    1.524466
C      3.173043    1.081147   -0.860610
C     -3.464800    0.509431   -0.285543
C     -3.063369    0.289895    1.139545
C     -3.168097   -0.788905   -1.039527
C     -2.279441   -0.987508    1.327450
C     -1.664389   -0.938859   -1.049096
C      1.062731   -0.093431   -0.253618
C     -0.118811   -0.031511    0.696334
C      2.046048    0.984183    0.123639
C     -1.142128   -1.117866    0.339998
H      4.057981   -0.645905   -1.864746
H      5.142434    0.198297   -0.745777
H      3.802731   -0.876249   -0.121497
H      3.401138    1.559068    1.650451
H      2.995765   -0.176947    1.713341
H      1.805395    1.017979    2.290114
H      2.723135    1.252711   -1.866456
H      3.744734    2.015379   -0.633305
H     -4.534059    0.733610   -0.395011
H     -2.854839    1.299132   -0.777915
H     -2.449266    1.126923    1.550047
H     -3.989481    0.193318    1.743605
H     -3.687668   -1.605300   -0.529346
H     -3.563184   -0.661204   -2.059491
H     -2.927647   -1.889100    1.355589
H     -1.802142   -0.927026    2.340270
H     -1.378892   -1.778478   -1.718667
H     -1.262576    0.014569   -1.494687
H      1.585472   -1.067028   -0.183532
H      0.768112    0.039383   -1.302528
H     -0.648025    0.931713    0.588891
H      0.275641   -0.204669    1.718262
H      1.496864    1.957896    0.084768
H     -0.710732   -2.130469    0.481402
