36

C      3.240784    1.575060    0.464038
C      2.344923   -2.032797   -0.335125
C      3.435106    0.096375    0.157306
C     -3.589086    1.111038   -0.376460
C     -3.317126   -0.197769    0.331443
C     -2.323612    1.437320   -1.171135
C     -2.271189   -1.013838   -0.408223
C     -1.103933    1.126424   -0.293410
C      1.163073   -0.338965    1.091521
C     -0.210407   -0.905051    0.885131
C      2.103310   -0.596720   -0.039539
C     -0.901377   -0.350717   -0.333314
H      2.967710    1.705684    1.515512
H      4.166307    2.141171    0.232019
H      2.461854    1.942305   -0.248059
H      1.533671   -2.498811   -0.946358
H      2.592196   -2.634894    0.556180
H      3.261907   -2.088668   -0.990767
H      4.035514   -0.380610    0.963659
H      4.061401    0.056122   -0.753489
H     -4.456867    1.018367   -1.041128
H     -3.799948    1.882081    0.375578
H     -4.242835   -0.816788    0.331729
H     -3.020181   -0.053963    1.376510
H     -2.339713    0.788288   -2.065112
H     -2.357336    2.479706   -1.482203
H     -2.590985   -1.182823   -1.447812
H     -2.252427   -2.011097    0.103572
H     -0.251198    1.685302   -0.767318
H     -1.327079    1.536262    0.691827
H      1.584419   -0.820497    1.998517
H      1.113004    0.744050    1.304601
H     -0.196688   -2.004680    0.792999
H     -0.857285   -0.672784    1.755671
H      1.659629   -0.134965   -0.967865
H     -0.315537   -0.589119   -1.260497
