38

C     -3.870366    0.656774   -1.884583
C     -2.764639    0.326940    1.707313
C     -3.625616    1.120295   -0.484245
C      0.499575   -0.856129    1.004443
C      1.381088   -1.392624   -0.127836
C      3.681489   -0.740501    0.506723
C      2.526989    0.608191   -1.032753
C      4.793047    0.095722    0.433703
C      3.633535    1.459130   -1.118913
C     -0.729082   -1.781421    1.118574
C     -1.916422   -0.631717   -0.496890
C     -3.032169   -0.064812    0.305391
C      2.544125   -0.497297   -0.219101
C      4.764799    1.201804   -0.385742
O      5.858152    2.059098   -0.482895
O     -1.392589   -1.766674   -0.036453
H     -4.703847    1.266961   -2.298666
H     -3.019955    0.787554   -2.566697
H     -4.234523   -0.397164   -1.912426
H     -3.385817    1.269034    1.919770
H     -3.179052   -0.425467    2.415587
H     -1.741238    0.648321    1.936589
H     -4.577783    1.362212    0.021893
H     -2.956537    1.983718   -0.443453
H      0.244393    0.167184    0.763694
H      1.024270   -0.962297    1.971621
H      0.809727   -1.401494   -1.074403
H      1.689831   -2.421432    0.155066
H      3.682919   -1.620656    1.148634
H      1.654594    0.840149   -1.622573
H      5.674355   -0.118368    1.014806
H      3.615060    2.328965   -1.761532
H     -0.295990   -2.849120    1.277220
H     -1.257437   -1.620667    2.063680
H     -2.270375   -0.827259   -1.572011
H     -1.137480    0.178384   -0.693793
H     -3.891019   -0.825533    0.292810
H      5.903989    2.840193    0.157445
