38

C     -3.285935    1.214894    1.497632
C     -5.105035   -1.112449   -0.902766
C     -4.297973    0.671709    0.540294
C      0.804561   -0.207569    0.006338
C      1.988497   -0.342730   -0.931389
C      3.965698   -0.945133    0.490651
C      3.636808    1.303854   -0.198900
C      5.108023   -0.532812    1.151929
C      4.781716    1.694891    0.468558
C     -0.445792   -0.556626   -0.743319
C     -2.700841   -0.794818   -0.711227
C     -3.977105   -0.717007    0.058593
C      3.232515    0.003512   -0.189567
C      5.542167    0.775669    1.160432
O      6.705369    1.148167    1.843782
O     -1.586184   -0.464386    0.025366
H     -2.624489    0.467889    1.940824
H     -3.759599    1.799815    2.333383
H     -2.645499    1.971086    0.956533
H     -5.300526   -0.273831   -1.623026
H     -4.801914   -1.975311   -1.530494
H     -6.016015   -1.387187   -0.368838
H     -5.277187    0.616217    1.072442
H     -4.452013    1.301399   -0.358562
H      0.909383   -0.954600    0.841320
H      0.765251    0.780000    0.487791
H      1.820624    0.344049   -1.768711
H      2.061675   -1.373791   -1.286702
H      3.639155   -1.974449    0.493778
H      3.063625    2.066715   -0.735155
H      5.704337   -1.273291    1.698613
H      5.122294    2.733366    0.472702
H     -0.354332   -1.637732   -1.048453
H     -0.540603    0.010962   -1.693140
H     -2.714411   -0.173303   -1.636747
H     -2.578864   -1.842653   -1.058520
H     -3.955848   -1.465356    0.861629
H      7.568465    1.100841    1.284925
