40

C     -2.546957    0.429996    2.587549
C      1.151105   -2.393529   -1.867271
C      4.675837    1.713223    1.052466
C     -0.376797    1.468619    0.904751
C     -1.203072    1.180139   -1.331005
C     -2.830581   -0.063656    1.209029
C     -1.340315   -1.790838   -1.676340
C      2.530949    0.645359    0.217946
C     -2.371951   -1.072538   -0.925576
C      1.854313   -0.263474   -0.413434
C      0.054792   -1.491274   -1.345115
C      3.992906    0.641567    0.315634
C     -1.722819   -0.551674    0.385550
C      0.438116   -0.404677   -0.599329
C     -0.658561    0.441570   -0.079728
O      4.635366   -0.272264   -0.228781
H     -3.137111   -0.204630    3.346581
H     -2.937769    1.468834    2.796727
H     -1.515799    0.304749    2.935893
H      0.646079   -3.167629   -2.488892
H      1.837343   -1.853265   -2.541103
H      1.736559   -2.851439   -1.058707
H      4.832846    1.390608    2.121963
H      4.041544    2.637363    1.141796
H      5.681414    1.955902    0.670176
H     -1.385335    1.960206    1.190166
H      0.187240    1.239765    1.795769
H      0.105336    2.369584    0.377426
H     -0.481099    2.039962   -1.453813
H     -2.177798    1.628222   -1.147070
H     -1.108370    0.579082   -2.235827
H     -3.401510    0.787131    0.704912
H     -3.645169   -0.858989    1.317198
H     -1.477614   -1.711397   -2.796110
H     -1.478750   -2.909448   -1.464656
H      2.027485    1.445663    0.683136
H     -3.162933   -1.769780   -0.551567
H     -2.814643   -0.250234   -1.507807
H      2.552162   -1.039873   -0.865470
H     -1.206439   -1.406936    0.822935
