34

C     -1.732945   -2.181153   -0.035300
C      2.474648    1.516626    1.329343
C      1.428823    0.740810    0.928525
C     -2.294911    0.570712    1.604706
C     -3.141039    1.651927    1.679541
C      3.829127    0.472217   -0.301872
C      0.078293   -0.937875   -1.969831
C     -2.909068    2.013873   -0.575199
C     -0.851562   -0.960066    0.361388
C      3.700360    1.392113    0.714026
C      1.498480   -0.201243   -0.088024
C      2.732866   -0.314040   -0.693275
C     -1.720609    0.185069    0.372200
C      0.348919   -1.012371   -0.507259
F      4.742884    2.171680    1.119539
F      2.925565   -1.216250   -1.685296
N     -3.452550    2.378348    0.592769
N     -2.088405    0.963296   -0.641317
O     -0.322141    0.328275   -2.381034
O      0.812248   -2.372271   -0.309941
H     -2.486056   -1.865487   -0.786677
H     -2.267400   -2.564169    0.839902
H     -1.102722   -2.948370   -0.482430
H      2.323133    2.222600    2.130262
H      0.488032    0.846999    1.416616
H     -2.072769    0.014358    2.509794
H     -3.570656    1.927666    2.644818
H      4.795035    0.374972   -0.785739
H     -0.702249   -1.693394   -2.285185
H      0.947978   -1.197792   -2.597047
H     -3.159409    2.602996   -1.466685
H     -0.540350   -1.223079    1.398965
H      0.450233    0.874978   -2.703790
H      0.838217   -2.561957    0.653510
