39

C      1.572570    1.553330   -0.549862
C     -2.149985    3.331774   -1.882719
C     -1.507783    2.131610   -1.749448
C      2.409592   -0.905929    1.562784
C      3.232193   -2.009285    1.679323
C     -2.297324    3.469975    0.459767
C     -1.364524   -0.764970    0.228039
C      2.598256   -2.675155   -0.461002
C     -0.123316   -3.814346    1.520885
C     -1.059122   -3.205578   -0.295975
C      0.785376    0.488402    0.250694
C     -2.547848    4.005894   -0.766454
C     -1.221653    1.529842   -0.531722
C     -1.640171    2.243705    0.569009
C      1.669852   -0.687241    0.411845
C     -0.520362    0.206773   -0.441851
F     -3.189339    5.202191   -0.859755
F     -1.428271    1.793238    1.804557
N      3.306253   -2.871665    0.657850
N     -0.555064   -4.273754    0.334985
N      1.803200   -1.598983   -0.560430
N     -0.373612   -2.508444    1.571786
N     -0.954215   -2.092120    0.462691
O     -0.284213   -0.125654   -1.804119
H      2.114705    1.116641   -1.384480
H      2.331827    1.944098    0.158164
H      0.873275    2.357568   -0.781661
H     -2.336819    3.735360   -2.861838
H     -1.209815    1.631345   -2.677823
H      2.342891   -0.205158    2.380060
H      3.819129   -2.207345    2.559338
H     -2.616575    4.011413    1.346732
H     -2.338593   -0.835539   -0.365732
H     -1.701497   -0.348888    1.225144
H      2.706659   -3.410829   -1.243968
H      0.352915   -4.444335    2.295093
H     -1.496578   -3.199635   -1.276142
H      0.616930    0.982446    1.226593
H      0.381054    0.449245   -2.210358
