34

C     -3.193550   -0.912582    0.036871
C      3.264806    0.746585    0.406178
C     -2.342843    0.323503   -0.208217
C      1.775937    0.670273    0.779792
C      0.634925   -1.263010   -0.734637
C      0.948725    1.089252   -0.367637
C     -0.111856    0.079547   -0.769624
C     -3.002026    1.461768    0.434338
C      0.875843   -1.483747    0.743782
N     -0.114151   -2.312600   -1.328234
O      4.048472    0.639698    1.548367
O      0.328065    2.341223   -0.174746
O     -2.383377    2.113751    1.311782
O     -4.290023    1.861945    0.120157
O      1.502417   -2.710879    0.975653
O     -1.070309    0.081731    0.234506
O      1.527901   -0.500807    1.376402
H     -2.621854   -1.840157   -0.029614
H     -3.738158   -0.842792    1.020279
H     -3.998126   -0.954832   -0.737505
H      3.555306   -0.021562   -0.304365
H      3.434247    1.787565    0.008420
H     -2.311114    0.468010   -1.316373
H      1.672912    1.477693    1.568618
H      1.630323   -1.124879   -1.218902
H      1.591138    1.227720   -1.273928
H     -0.499042    0.268922   -1.765781
H     -0.152348   -1.591354    1.200984
H     -0.762182   -1.907119   -2.040780
H      0.545795   -2.998414   -1.760804
H      4.864896    1.161307    1.408965
H      0.875063    3.081928   -0.521665
H     -4.887049    2.349243    0.782430
H      2.401238   -2.766928    0.595290
