41

C      4.186428    1.156537    0.308146
C      3.699285    0.606743   -1.028230
C     -2.505125   -0.429652   -2.077103
C     -2.328532   -1.495062   -1.338826
C     -2.754950    0.694003   -2.704120
C     -3.241414   -0.230578    0.610370
C      1.083596   -1.769995    0.235174
C     -0.196125    1.059179    1.361969
C     -2.343248   -1.320197    0.089372
C      2.419105   -1.114672    0.164709
C     -2.600099    0.475331    1.814671
C     -1.618041    1.527074    1.346702
C      2.312712    0.008750   -0.864557
C     -0.070723   -0.870387   -0.135034
C      0.232636    0.585688   -0.022608
Br    -4.576274    1.047662   -2.961165
Br     3.785890   -2.384224   -0.321208
Cl    -1.869064   -0.697106    2.913063
Cl    -1.802340    2.992040    2.342743
O     -1.112059   -1.175303    0.700170
O      1.498409    0.962854   -0.333474
H      4.532154    0.298744    0.946792
H      3.415072    1.764199    0.811660
H      5.091643    1.767361    0.106473
H      4.385507   -0.238482   -1.271276
H      3.735183    1.347191   -1.829928
H     -2.197395   -2.378883   -1.932141
H     -1.904108    1.248985   -2.978523
H     -3.462484    0.549128   -0.113259
H     -4.210550   -0.619630    0.988246
H      0.970218   -2.197150    1.266622
H      1.124919   -2.678981   -0.434541
H     -0.084877    0.185326    2.049118
H      0.499191    1.835362    1.746564
H     -2.762669   -2.282303    0.522595
H      2.728120   -0.656462    1.131598
H     -3.423050    0.983909    2.358097
H     -1.883653    1.824480    0.298123
H      2.000346   -0.417597   -1.817218
H     -0.295008   -1.088741   -1.213287
H     -0.458622    1.124860   -0.736478
