56

C     -1.539385    2.096604   -0.653080
C      1.475315   -1.039801   -1.596939
C     -3.558331   -0.418832   -1.969865
C     -5.551477   -0.219110   -0.551729
C      4.221287   -1.485897    0.531164
C      5.533127    0.534634   -0.099407
C     -3.855291   -0.062661    1.436696
C      3.181329    1.774917    0.140193
C     -2.066649   -1.462029    0.383412
C      2.298576    0.198922    1.869689
C     -2.025863    1.037200    0.309349
C      1.760495   -0.048044   -0.515703
C     -3.528924   -1.200096    0.458402
C      3.519523    0.838671    1.305798
C     -3.487599    0.852354    0.253577
C      3.145043    0.482949   -0.699103
C     -1.222797   -0.235749    0.211684
C      1.472697   -0.547172    0.867594
C     -4.013941   -0.231977   -0.600738
C      4.165381   -0.046024    0.237983
B     -0.058459   -0.298874    1.286087
Cl    -0.405670   -0.741029    3.065982
H     -0.930615    2.875034   -0.177560
H     -2.461132    2.623651   -1.032094
H     -1.068435    1.662215   -1.555136
H      0.965456   -0.530084   -2.464125
H      0.897865   -1.920181   -1.265890
H      2.414154   -1.463242   -2.061737
H     -4.310678    0.021951   -2.677784
H     -3.574138   -1.521320   -2.217170
H     -2.592790   -0.047900   -2.266022
H     -5.921681   -1.212612   -0.183387
H     -5.941538    0.583331    0.071467
H     -5.980455   -0.091352   -1.566412
H      3.901058   -1.637717    1.604389
H      5.292979   -1.847832    0.531034
H      3.688873   -2.154319   -0.151404
H      5.763591    1.445164    0.450977
H      5.613926    0.694202   -1.199310
H      6.341817   -0.206635    0.168948
H     -3.203423    0.014958    2.297900
H     -4.906043   -0.038607    1.715382
H      4.046153    2.362002   -0.176047
H      2.214154    2.273421    0.222228
H     -1.879657   -2.119889   -0.489021
H     -1.777496   -2.051405    1.278233
H      1.704533    1.015431    2.375665
H      2.598246   -0.485256    2.670007
H     -1.785177    1.450816    1.336787
H      1.071198    0.834943   -0.676918
H     -4.105740   -2.109079    0.594446
H      4.186604    1.241591    2.055685
H     -4.024805    1.801900    0.247743
H      3.420076    0.623377   -1.740700
H     -0.716691   -0.211389   -0.783368
H      1.601424   -1.654124    0.920251
