28

C     -1.409006    1.033902    0.597255
C     -1.695355   -1.096117   -0.332686
C     -2.666536    1.409310    0.171761
C     -2.962065   -0.739439   -0.769362
C      0.449955   -0.614271    0.815195
C      2.849805   -0.805545    0.457915
C     -0.886765   -0.219446    0.361310
C     -3.439942    0.516266   -0.512538
C      1.707216    1.122372   -0.429966
C      1.541283   -0.333640   -0.179569
N      1.392012   -1.030997   -1.418259
O      3.915459   -0.520318   -0.388048
O     -4.716317    0.924476   -0.934200
O      1.857360    1.962098    0.486004
O      1.700026    1.609473   -1.734880
H     -0.813092    1.747469    1.134087
H     -1.315904   -2.079035   -0.531284
H     -3.046616    2.401705    0.373658
H     -3.603630   -1.415587   -1.312696
H      0.476252   -1.692431    1.075671
H      0.746458   -0.082258    1.763709
H      3.003911   -0.284015    1.415805
H      2.755149   -1.905064    0.578406
H      0.870214   -0.519368   -2.149995
H      2.340551   -1.235396   -1.805571
H      4.191814   -1.359571   -0.851205
H     -5.520485    0.792645   -0.340578
H      2.278247    2.412779   -1.981950
