42

C     -2.055684   -2.662593    1.604839
C      0.155992   -2.394814    2.585203
C      3.537400    1.079659   -1.583096
C      3.186831    0.374291   -0.280841
C      2.679696    0.521050   -2.668682
C     -2.837807    2.625201    1.168779
C     -2.426398    1.555133    1.934885
C      1.764358    0.621304    0.103999
C     -1.665599    1.641500   -0.696981
C     -2.879784    3.775028   -0.944635
C     -2.442505    2.646894   -0.153188
C     -1.250447    0.569709    0.060421
C     -1.639909    0.538585    1.381961
C      1.270744    0.278653   -2.274791
C     -0.425847   -0.473556   -0.558196
C     -0.227429   -1.701042    0.223343
C     -0.817534   -1.761089    1.584671
N     -3.218464    4.689906   -1.566413
N      0.864003    0.137957   -0.922949
O      0.395874    0.194942   -3.202385
O     -0.690134   -2.843552   -0.476118
O     -1.216023   -0.539760    2.123905
H     -2.897322   -2.049448    1.196759
H     -2.340534   -2.910627    2.648756
H     -1.874795   -3.585757    1.037448
H      0.068664   -1.944625    3.582860
H      1.197627   -2.186252    2.232688
H      0.053006   -3.475676    2.640765
H      3.490505    2.175053   -1.487826
H      4.605990    0.802715   -1.794919
H      3.861348    0.819236    0.489579
H      3.448462   -0.690126   -0.396716
H      3.111204   -0.408101   -3.113910
H      2.636802    1.300409   -3.483258
H     -3.447907    3.402115    1.620720
H     -2.713051    1.489500    2.991150
H      1.628357    1.722230    0.186555
H      1.585605    0.118268    1.075049
H     -1.377348    1.698590   -1.742435
H     -0.900372   -0.741837   -1.525667
H      0.876398   -1.884877    0.332193
H     -1.073974   -2.524197   -1.326826
