42

C      4.000955    0.887876    1.172531
C     -4.404654    2.124861    0.268978
C     -3.476452    2.417842   -0.721518
C     -4.127004    1.115442    1.148773
C      0.114128   -4.125684   -0.474861
C     -1.143263   -3.841450   -0.021181
C     -2.301154    1.715125   -0.825098
C     -2.948767    0.419824    1.036028
C      0.979766   -3.098810   -0.741343
C     -1.543965   -2.538413    0.169545
C      0.838881    1.771270   -0.404536
C      2.327092    1.982150   -0.172560
C      2.699757   -0.434421   -0.363740
C     -1.994419    0.684998    0.055565
C      0.585171   -1.789379   -0.553009
C      1.278278   -0.528544   -0.783947
C     -0.687748   -1.466882   -0.090865
C      0.527194    0.420610    0.144112
N      3.063699    0.843895    0.106187
N     -0.805922   -0.056857    0.024233
Cl     0.685686    0.000000    0.000000
H      5.011201    1.099655    0.766764
H      4.051272   -0.070992    1.726290
H      3.772202    1.692122    1.910359
H     -5.335637    2.687227    0.344535
H     -3.732249    3.231580   -1.407087
H     -4.865811    0.902248    1.915598
H      0.448529   -5.155994   -0.631326
H     -1.821659   -4.646852    0.187101
H     -1.592129    1.945631   -1.596022
H     -2.753340   -0.356072    1.745364
H      1.995237   -3.277608   -1.105983
H     -2.541894   -2.328874    0.521413
H      0.210333    2.591479   -0.081670
H      0.739459    1.697748   -1.528699
H      2.758838    2.551354   -1.021286
H      2.384981    2.693963    0.703896
H      3.342962   -0.728874   -1.232443
H      2.888075   -1.182395    0.434098
H      1.162598   -0.142676   -1.822275
H      0.895459    0.293878    1.198074
H     -0.685686    0.000000    0.000000
