23

C      2.564788   -0.803367    0.393888
C     -1.768270   -1.235981    0.130487
C     -1.893872    0.999182   -0.837237
C      0.781967    1.556659   -0.145209
C      1.090246   -0.786305    0.701261
C     -1.126374    0.118668    0.150759
C      0.317028    0.120553   -0.222490
H      3.145537   -0.755367    1.340145
H      2.884906   -1.765918   -0.098015
H      2.888885   -0.001487   -0.276523
H     -2.817192   -1.098170    0.506182
H     -1.303675   -1.977008    0.780279
H     -1.896645   -1.584654   -0.929989
H     -1.361899    1.934249   -1.055611
H     -1.979013    0.410723   -1.787120
H     -2.912467    1.199311   -0.451257
H      1.816094    1.661364    0.220187
H      0.135234    2.148294    0.536002
H      0.689231    1.975591   -1.167627
H      0.915105   -0.554299    1.776396
H      0.713901   -1.816214    0.527433
H     -1.297674    0.558908    1.152109
H      0.414163   -0.304732   -1.244051
