42

C      4.385070   -0.786248    1.018109
C     -4.337414   -2.189050    0.188285
C     -3.446678   -2.271334    1.229287
C     -4.108049   -1.349373   -0.863394
C      0.038418    3.632476   -1.940408
C     -1.296045    3.482484   -1.634253
C     -2.312985   -1.501000    1.212955
C     -2.987695   -0.584575   -0.885570
C      0.964453    2.682356   -1.574529
C     -1.652133    2.342229   -0.948815
C      0.748858   -1.487569    1.104563
C      2.230234   -1.653324    0.719102
C      2.642668    0.665793    0.239148
C     -2.079595   -0.654214    0.153899
C      0.595619    1.537406   -0.884625
C      1.307326    0.365015   -0.368206
C     -0.736521    1.362930   -0.565195
C      0.387503   -0.067080    0.779069
N      2.972019   -0.486082    1.091958
N     -0.893016    0.115071    0.157017
Cl     0.692815    0.000000    0.000000
H      4.587527   -1.643321    0.325921
H      4.735255   -1.072894    2.039403
H      4.988542    0.105518    0.687112
H     -5.227159   -2.826797    0.252111
H     -3.651145   -2.953699    2.065170
H     -4.838691   -1.321502   -1.656217
H      0.355649    4.515587   -2.478084
H     -1.975488    4.255653   -1.944550
H     -1.613655   -1.572428    2.059102
H     -2.802459    0.086321   -1.733149
H      2.006617    2.793771   -1.810416
H     -2.688314    2.224590   -0.706566
H      0.742187   -1.581389    2.226186
H      0.137717   -2.241681    0.607052
H      2.657328   -2.499151    1.327802
H      2.334891   -1.968329   -0.327324
H      2.522928    1.517804    0.922893
H      3.403124    0.813060   -0.537362
H      1.344103   -0.405319   -1.167681
H      0.559007    0.618296    1.620200
H     -0.692815    0.000000    0.000000
