29

C      2.186576    1.663728   -0.317118
C      3.269309   -0.473200    0.389347
C     -3.403013   -1.074572    0.349950
C      0.299774   -0.676993   -0.556527
C      0.805406   -0.138072    0.742158
C     -1.071676   -1.270232   -0.329565
C      2.169219    0.484475    0.665302
C     -2.086263   -0.300206    0.181966
C     -2.317132    0.873105   -0.662274
O     -3.456256    1.104960   -1.142039
O     -1.309158    1.772693   -0.970454
H      2.336865    1.290411   -1.364247
H      1.285195    2.275770   -0.211818
H      3.053066    2.324571   -0.105276
H      4.143282    0.112415    0.003502
H      3.630593   -0.956377    1.326778
H      3.018256   -1.286069   -0.309156
H     -3.850954   -1.308519   -0.643767
H     -3.204576   -2.033783    0.885184
H     -4.138919   -0.505995    0.922815
H      0.226337    0.071972   -1.369428
H      0.923405   -1.495909   -0.968250
H      0.109321    0.633847    1.099513
H      0.848535   -0.960196    1.464646
H     -1.036430   -2.114291    0.403812
H     -1.465561   -1.747247   -1.272501
H      2.361773    0.940201    1.660732
H     -1.831856    0.033384    1.216507
H     -1.495118    2.760129   -1.089791
