34

C      3.910363    1.991976   -0.295930
C      2.097041   -2.518239    0.707089
C      3.350855   -1.972355    0.674526
C     -3.416568   -1.226704   -1.072465
C      0.948734   -1.817435    0.405106
C      3.439938   -0.653289    0.317056
C     -3.839775    0.077779   -0.447080
C     -2.027895   -1.392310   -0.388454
C      1.034009   -0.482329    0.042997
C      2.297265    0.102786   -0.001595
C     -2.589866    0.884922   -0.472591
C     -0.126825    0.327817   -0.173536
C     -2.566693    1.908350    0.601493
N      2.562677    1.414080   -0.420204
N     -1.492604   -0.074266   -0.339264
O      0.061854    1.609623   -0.234552
O     -3.385239    2.852515    0.543078
O     -1.677527    1.843404    1.649280
H      4.592767    1.631674   -1.071681
H      4.344683    1.757527    0.716832
H      3.852997    3.085682   -0.356617
H      1.982677   -3.563182    0.985016
H      4.235551   -2.572352    0.924841
H     -4.066466   -2.070658   -0.848192
H     -3.240285   -1.041735   -2.151671
H     -0.012838   -2.347479    0.488706
H      4.426245   -0.227705    0.292032
H     -4.172647   -0.177875    0.592576
H     -4.671710    0.555463   -1.014249
H     -1.434195   -2.004947   -1.126665
H     -2.217520   -1.888955    0.558474
H     -2.484860    1.324979   -1.487422
H      1.875702    2.038381   -0.856887
H     -1.589847    2.624857    2.315773
