29

C      2.987800    0.371534   -1.036898
C      2.732111    1.032389    1.306788
C     -3.468636   -1.311943   -0.489430
C      0.141813   -0.001808   -0.157930
C      1.304141   -0.803401    0.321543
C     -1.068522   -0.900195   -0.118758
C      2.615367   -0.105133    0.364525
C     -2.339793   -0.264841   -0.585662
C     -2.745154    0.891555    0.237262
O     -3.788586    0.831563    0.941624
O     -2.021762    2.058778    0.273180
H      3.087766    1.483137   -1.056974
H      3.940130   -0.036415   -1.386710
H      2.210662    0.088271   -1.779062
H      3.588798    0.904230    2.025419
H      1.851318    1.209375    1.945521
H      2.954075    1.980285    0.769377
H     -4.083372   -1.304485   -1.402800
H     -3.034647   -2.328744   -0.390704
H     -4.139147   -1.089559    0.362440
H     -0.089776    0.879520    0.454365
H      0.257239    0.343838   -1.204359
H      1.410676   -1.667899   -0.369654
H      1.055216   -1.241595    1.310871
H     -1.197755   -1.274876    0.938607
H     -0.882916   -1.849701   -0.700185
H      3.386261   -0.859130    0.636644
H     -2.218101   -0.011274   -1.655588
H     -2.445206    2.976526    0.446550
