34

C      3.942014   -2.046821   -0.638916
C      2.333619    2.482303    0.606980
C      3.573387    1.895636    0.508234
C     -3.450443    1.022329    0.596866
C      1.145998    1.828372    0.357759
C      3.597867    0.573221    0.136759
C     -3.701303    0.293358   -0.734858
C     -1.983024    1.343012    0.404002
C      1.167264    0.494707   -0.017074
C      2.412509   -0.126147   -0.123556
C     -2.497817   -0.622348   -0.748493
C     -0.024035   -0.195712   -0.378174
C     -2.766550   -1.772145    0.108401
N      2.590647   -1.494613   -0.432668
N     -1.393497    0.207828   -0.201417
O      0.100537   -1.345973   -0.941787
O     -2.101266   -1.953895    1.150328
O     -3.759105   -2.671453   -0.223414
H      4.539898   -1.390254   -1.311137
H      4.468691   -2.115216    0.315417
H      3.913327   -3.030658   -1.134158
H      2.254833    3.541725    0.902329
H      4.488704    2.454848    0.715073
H     -4.084773    1.901593    0.701868
H     -3.583218    0.259169    1.381932
H      0.213262    2.409638    0.445760
H      4.563811    0.113376    0.059216
H     -4.643178   -0.247803   -0.713269
H     -3.644014    1.076084   -1.515459
H     -1.974922    2.262799   -0.247462
H     -1.540865    1.586166    1.413106
H     -2.253982   -0.906244   -1.801725
H      1.850143   -2.179632   -0.511466
H     -3.754517   -3.647249    0.092954
