55

C     -3.241225    1.085874   -1.134536
C     -3.718323    1.191962    1.199285
C     -1.025119   -1.048502   -1.500050
C      4.741769    0.858272    1.111002
C     -2.863984   -2.216126    0.369024
C      2.989970   -1.416428    0.154347
C      1.531422   -1.815865    0.080570
C     -0.898852    1.585013    0.616071
C     -3.661081   -1.011983    0.127231
C     -1.401678   -2.109832    0.590446
C      0.277188    1.711610   -0.325370
C      2.046508    0.263508   -1.345375
C      2.244430    1.044661    0.943890
C      3.337089   -0.226259   -0.667734
C     -1.581674    0.265120    0.581255
C      0.618281   -0.683364    0.380988
C     -3.023227    0.316124    0.130400
C     -0.797274   -0.845559   -0.046458
C      3.556154    0.997359    0.233509
C      1.225301    0.585381   -0.112976
O      3.671324    2.141790   -0.551448
H     -4.314925    1.442206   -1.118438
H     -2.632384    1.973933   -1.253028
H     -3.168700    0.500757   -2.062713
H     -3.520626    2.251537    1.032990
H     -3.472959    0.821907    2.205982
H     -4.816674    1.033282    0.997061
H     -2.024348   -1.553327   -1.662102
H     -0.861313   -0.214749   -2.160616
H     -0.323662   -1.866515   -1.831462
H      4.961910   -0.164572    1.455201
H      5.646394    1.183140    0.524142
H      4.652132    1.586616    1.942937
H     -2.997652   -2.923411   -0.507017
H     -3.256014   -2.844185    1.229969
H      3.292788   -1.316752    1.237084
H      3.572982   -2.282398   -0.226039
H      1.391599   -2.335203   -0.861706
H      1.400567   -2.600599    0.884795
H     -0.467359    1.853463    1.630967
H     -1.586870    2.459079    0.416946
H     -4.233340   -1.092097   -0.853494
H     -4.530570   -1.036816    0.861865
H     -1.118642   -2.099601    1.674218
H     -0.837301   -2.954179    0.142818
H      0.777033    2.688834   -0.042019
H     -0.025220    1.880314   -1.379151
H      1.680548   -0.564158   -1.936719
H      2.244814    1.187470   -1.929725
H      2.021882    2.050984    1.315419
H      2.261606    0.367322    1.811321
H      4.150395   -0.360699   -1.377061
H     -1.682778   -0.017061    1.680693
H      0.578991   -0.600487    1.511421
H      3.210698    2.873209   -0.056523
