57

C     -5.826957   -0.380414    0.217188
C     -4.965412    1.871442   -0.195855
C      0.799065   -1.683239   -1.494436
C      3.664376   -0.583542   -1.405317
C      4.570744    3.320741    0.025509
C      2.571418   -2.510914    0.833561
C     -2.974325   -1.325975    0.311018
C     -0.035839    1.424317   -1.144567
C     -1.591179   -1.360327    0.900120
C      1.383258    1.346595   -0.652299
C      1.126616   -2.140873    0.863739
C      3.492858   -1.328597    0.975128
C     -2.340769    1.065975   -0.088842
C     -4.655194    0.528078    0.431274
C     -3.383754    0.004351   -0.215573
C     -0.965936    0.587326   -0.355853
C     -0.605789   -0.593923    0.127339
C      1.716994    0.074333    0.078267
C      3.920681    0.975489    0.413926
C      0.784436   -1.047917   -0.160427
C      3.176446   -0.233058   -0.026203
O      4.590525    0.963138    1.469508
O      3.900773    2.141044   -0.315806
H     -6.750142    0.197200    0.452804
H     -5.833391   -1.257258    0.895065
H     -5.841047   -0.663460   -0.855811
H     -6.067623    2.052879   -0.250433
H     -4.534501    2.717336    0.389091
H     -4.582423    1.954219   -1.230158
H      0.837838   -1.028165   -2.360857
H     -0.174195   -2.256153   -1.595636
H      1.573882   -2.504433   -1.537425
H      3.075617   -0.186307   -2.232229
H      3.830639   -1.699870   -1.475444
H      4.704295   -0.167712   -1.543490
H      4.398792    3.650940    1.069081
H      5.659833    3.144676   -0.162362
H      4.258894    4.102279   -0.707959
H      2.760679   -3.172465    1.704355
H      2.855114   -3.091719   -0.062982
H     -2.985343   -2.085094   -0.515449
H     -3.671432   -1.731943    1.080415
H     -0.358380    2.490210   -1.076585
H     -0.067104    1.185195   -2.229188
H     -1.325013   -2.429850    1.041972
H     -1.615157   -0.928256    1.937213
H      2.057771    1.423582   -1.528113
H      1.602843    2.236168   -0.024068
H      0.549483   -3.051212    0.530685
H      0.818055   -1.846959    1.876174
H      4.521190   -1.654271    0.825445
H      3.347702   -0.893801    1.983901
H     -2.331418    1.514050    0.936791
H     -2.590012    1.911904   -0.780348
H     -4.422815    0.699447    1.490691
H     -3.628621   -0.078065   -1.315393
H      1.572953    0.332858    1.178135
