55

C     -3.689833   -0.363032    1.584016
C     -3.569923   -1.304176   -0.654566
C     -0.725036   -0.690944   -1.890641
C      4.130595    1.418545    0.658935
C     -2.358656    2.108552   -0.288760
C      2.744369    0.273261   -1.585476
C      1.568723    1.096729   -1.207907
C     -1.073589   -1.540573    0.920567
C     -3.489567    1.140434   -0.315353
C     -1.273170    1.579454   -1.221020
C      0.291893   -1.321792    1.470839
C      2.090520   -1.541084   -0.143328
C      2.273684    0.058416    1.561533
C      3.267062   -0.627154   -0.517522
C     -1.571261   -0.206799    0.416431
C      0.659982    0.533557   -0.182178
C     -3.043587   -0.204185    0.198784
C     -0.741963    0.230846   -0.729418
C      3.544775    0.047708    0.780579
C      1.230919   -0.578259    0.624599
O      4.478013   -0.740809    1.487780
H     -3.910149   -1.435969    1.752337
H     -4.577025    0.283034    1.684035
H     -2.977989   -0.056322    2.380682
H     -2.890760   -2.131890   -0.847598
H     -3.924397   -0.851226   -1.619033
H     -4.502711   -1.763273   -0.213575
H      0.065201   -0.441800   -2.601155
H     -1.694478   -0.541761   -2.448926
H     -0.668426   -1.754397   -1.667370
H      4.486437    1.685698   -0.334928
H      3.370546    2.157211    1.049939
H      5.010953    1.559511    1.352793
H     -1.983757    2.373945    0.698707
H     -2.712688    3.053755   -0.763770
H      2.458300   -0.383998   -2.454607
H      3.556527    0.921788   -1.981931
H      1.004492    1.313608   -2.165411
H      1.966797    2.117570   -0.922383
H     -1.741518   -1.801183    1.794309
H     -1.166573   -2.357891    0.214774
H     -4.333333    1.567290    0.261133
H     -3.852358    1.076276   -1.371997
H     -1.750662    1.480135   -2.225157
H     -0.506474    2.348631   -1.274178
H      0.723485   -2.339265    1.699687
H      0.187316   -0.838802    2.476117
H      1.639351   -1.947526   -1.044586
H      2.437993   -2.314234    0.547035
H      2.342037   -0.530144    2.507160
H      1.923519    1.072122    1.842721
H      4.111091   -1.202104   -0.929084
H     -1.370284    0.514610    1.265710
H      0.452222    1.366598    0.560679
H      4.083368   -1.568692    1.809979
