53

C     -4.457252   -1.252187    2.276953
C     -4.921873   -1.168698   -0.172397
C      4.121002   -1.759342    0.249763
C      4.305820    0.666313    0.240121
C      1.528620    1.990359    0.199748
C     -3.331982    2.079871   -2.199145
C      0.523813   -1.166394    1.950430
C      1.889929   -0.538938    1.703075
C      2.709707    0.622706   -2.390429
C      1.282841    0.608630   -1.867754
C     -1.818455   -0.743423    1.393975
C     -1.218451    0.892772   -0.691595
C     -4.286102   -0.446667    1.008967
C     -0.506829   -0.508100    1.092125
C     -2.855072   -0.200172    0.703041
C     -0.197294    0.324689    0.029999
C     -2.554311    0.627709   -0.351830
C      2.059426   -0.466346    0.227012
C      3.457619   -0.447393   -1.716402
C      3.476273   -0.477021   -0.240955
C      1.202761    0.630821   -0.362455
O      4.048280   -1.289957   -2.348542
O     -3.549899    1.224467   -1.109520
H     -5.565652   -1.241454    2.489878
H     -4.123180   -2.291762    2.109465
H     -3.925899   -0.729736    3.081905
H     -5.991403   -0.913755   -0.300756
H     -4.338416   -0.953108   -1.079075
H     -4.873894   -2.270407   -0.032891
H      4.748508   -2.148727   -0.596000
H      3.395506   -2.484244    0.617366
H      4.860168   -1.544074    1.064982
H      5.383611    0.397672    0.025672
H      4.141871    1.610897   -0.321136
H      4.273398    0.815190    1.348971
H      0.599762    2.544504    0.514981
H      1.941609    2.597761   -0.654515
H      2.209884    1.999927    1.042575
H     -2.553519    2.837376   -2.052555
H     -3.164485    1.439432   -3.098478
H     -4.286594    2.673236   -2.327413
H      0.576236   -2.258238    1.786466
H      0.238085   -0.994343    3.009457
H      1.909039    0.397028    2.254389
H      2.655025   -1.201516    2.165320
H      3.147657    1.637772   -2.253015
H      2.630082    0.478118   -3.490284
H      0.813315   -0.331522   -2.229323
H      0.707157    1.455404   -2.303242
H     -2.079944   -1.401655    2.232862
H     -1.055387    1.565145   -1.537421
H     -4.788488    0.534886    1.090853
H      1.607375   -1.423511   -0.183223
