52

C      4.286267    1.717916    0.888310
C      2.790728    0.386588    2.360039
C     -3.686114   -0.516420    2.097630
C     -4.076729    0.859031    0.124655
C     -1.960587    0.064435   -1.962937
C      4.971559    0.105031   -2.357578
C      0.113452    0.818211    1.413358
C      0.830681   -0.708472   -1.989171
C      2.168239   -0.442307   -2.102207
C     -1.338248    1.080953    0.953039
C     -2.806568   -2.669769   -0.434327
C      2.852653    1.315199    1.144876
C      0.814878    0.362467    0.179667
C      0.154299   -0.298386   -0.831970
C      2.868541    0.227351   -1.090240
C     -1.857046   -0.249125    0.521629
C     -3.790966   -1.604945   -0.073091
C     -1.544921   -2.097710   -0.953460
C      2.191207    0.621832    0.035045
C     -3.352158   -0.368151    0.606831
C     -1.299030   -0.645060   -0.803037
O     -4.976567   -1.805992   -0.367008
O     -0.735208   -2.801669   -1.487235
O      4.218805    0.474596   -1.245816
H      4.674345    2.305833    1.784060
H      4.919445    0.824539    0.871612
H      4.430105    2.338504   -0.000517
H      3.839431    0.169479    2.717172
H      2.365787   -0.601067    2.113649
H      2.241782    0.828686    3.209415
H     -4.687462   -0.965830    2.230981
H     -3.660173    0.509203    2.517180
H     -2.902853   -1.156076    2.556166
H     -4.595167    1.410097    0.952429
H     -3.351561    1.610250   -0.302166
H     -4.885827    0.615995   -0.603333
H     -1.574662   -0.449696   -2.891596
H     -3.047730   -0.077310   -1.981639
H     -1.728276    1.127154   -2.025857
H      4.755694    0.722833   -3.269406
H      4.852925   -0.969587   -2.614348
H      6.050579    0.297182   -2.122239
H      0.505628    1.722521    1.864443
H      0.051826   -0.039371    2.124497
H      0.337413   -1.227023   -2.803386
H      2.753274   -0.728411   -2.964833
H     -1.936602    1.473171    1.787107
H     -1.252894    1.826627    0.141625
H     -3.245479   -3.392669   -1.142871
H     -2.613482   -3.254663    0.510599
H      2.327828    2.259282    1.448345
H     -1.461063   -1.005255    1.265908
