53

C     -4.700323    1.272235    1.710309
C     -5.008955    0.849205   -0.673445
C      4.139811    1.655856   -0.588161
C      3.963990    0.669119    1.626275
C      1.609666   -1.571594    1.152508
C     -2.934535   -2.328148   -2.340349
C      0.349539    1.140956    1.959972
C      1.395452    1.742744    1.018332
C      3.065123   -1.456696   -1.368964
C      1.593462   -1.299404   -1.259498
C     -2.035270    0.717303    1.297746
C     -1.120692   -1.030371   -0.664530
C     -4.412145    0.295351    0.597843
C     -0.682880    0.463753    1.119179
C     -2.944426    0.082876    0.477230
C     -0.220284   -0.395767    0.156353
C     -2.477661   -0.778659   -0.489028
C      1.953100    0.698394    0.085498
C      3.878193   -0.728673   -0.398129
C      3.455692    0.561332    0.237214
C      1.263580   -0.609086    0.067548
O      4.955922   -1.165716   -0.069281
O     -3.371030   -1.445315   -1.346516
H     -4.259992    0.945455    2.662771
H     -5.803500    1.333432    1.808433
H     -4.354710    2.287125    1.435546
H     -5.829123    1.544761   -0.411924
H     -5.424790    0.020027   -1.279275
H     -4.262109    1.449892   -1.253856
H      5.228053    1.422827   -0.671486
H      3.937338    2.656666   -0.198193
H      3.702723    1.592618   -1.607123
H      3.240790    0.751519    2.429808
H      4.676584    1.536164    1.764842
H      4.607283   -0.226538    1.874522
H      1.708560   -2.609383    0.716262
H      0.777663   -1.711027    1.904328
H      2.523408   -1.401494    1.703686
H     -3.810990   -2.910536   -2.687277
H     -2.168031   -3.045531   -2.009699
H     -2.554473   -1.720649   -3.194755
H      0.767508    0.517025    2.741984
H     -0.154397    2.007795    2.437273
H      0.848170    2.561126    0.478725
H      2.155959    2.260350    1.631918
H      3.353401   -1.158317   -2.406651
H      3.318463   -2.541993   -1.279740
H      1.146913   -0.750955   -2.093645
H      1.108540   -2.313874   -1.251569
H     -2.363481    1.393847    2.059770
H     -0.752528   -1.693270   -1.412280
H     -4.897833   -0.667401    0.841548
H      1.819273    1.130644   -0.954281
