48

C     -0.395346   -1.529947   -1.474078
C     -5.999479   -1.877661    0.527210
C     -3.977605    3.048932   -1.049225
C     -1.986603   -1.024673    1.197996
C     -3.315439   -1.279176    0.963964
C      2.546010   -2.115578    0.742457
C      1.678164   -2.265158   -0.514120
C      0.016830    0.433420    1.093580
C     -2.244269    1.106382    0.224378
C      4.459102   -0.506565    0.881214
C      2.832560    1.536619    0.078312
C      6.327852    2.541972    0.237559
C     -1.442368    0.174487    0.827715
C      3.136059   -0.760696    0.615055
C      2.294049    0.252200    0.208602
C      0.861450   -0.013058   -0.076923
C     -4.132093   -0.353079    0.359297
C     -3.589211    0.865548   -0.019622
C      4.990906    0.784608    0.748068
C      4.158779    1.803136    0.342620
N      0.631765   -1.316448   -0.521686
O     -5.493635   -0.630343    0.126529
O     -4.427453    1.772753   -0.621813
O      6.245762    1.322830    0.940725
O      4.958547    2.961508    0.300229
H     -1.112885   -2.326319   -1.241309
H      0.100478   -1.847136   -2.439797
H     -0.867490   -0.552607   -1.714749
H     -5.953238   -2.019908    1.633755
H     -5.434799   -2.727835    0.091758
H     -7.044554   -1.998423    0.224915
H     -3.363968    2.901373   -1.953451
H     -3.296760    3.455996   -0.257825
H     -4.791167    3.759406   -1.195793
H     -1.388827   -1.807830    1.685422
H     -3.756475   -2.253102    1.264951
H      1.854143   -2.155317    1.620454
H      3.280706   -2.915062    0.815905
H      2.324956   -2.133460   -1.413292
H      1.218432   -3.295604   -0.529024
H      0.117297    1.536845    1.169749
H      0.334012    0.009395    2.052930
H     -1.821937    2.057421   -0.071682
H      5.107476   -1.317436    1.200556
H      2.197828    2.341526   -0.236563
H      6.629788    2.356019   -0.814036
H      6.938619    3.303033    0.728940
H      0.594031    0.697011   -0.916454
