39

C     -2.354814    2.752001   -0.248462
C     -2.841573   -1.417617    0.828922
C     -2.244080   -2.748615   -1.117798
C     -1.526734    2.283839    0.910269
C      3.013468   -1.538395    0.854050
C      4.306228    0.446042    0.420756
C      1.776874   -2.187819    0.895606
C      4.360331    1.782965    0.028195
C      3.093107   -0.215999    0.468968
C      0.614578   -1.527254    0.555128
C      3.164674    2.386098   -0.299241
C      0.733130   -0.206629    0.175371
C      1.935299    0.468975    0.121755
C     -0.524137    0.512761   -0.194382
C     -1.372111   -0.482904   -0.963172
C     -1.707647   -1.694470   -0.147083
O      3.214275    3.608170   -0.658062
O     -0.631542   -0.905842   -2.068378
O     -1.229293    0.947489    0.893322
O      2.032331    1.728561   -0.242421
O     -0.627051   -2.177651    0.596350
H     -3.436490    2.484605   -0.128102
H     -2.045917    2.374193   -1.220650
H     -2.324682    3.865160   -0.280083
H     -3.269064   -2.420173    1.113330
H     -3.669295   -0.853431    0.365867
H     -2.472035   -0.969267    1.772485
H     -3.275188   -2.442538   -1.418485
H     -1.632226   -2.735490   -2.066335
H     -2.217081   -3.753132   -0.698134
H     -2.102190    2.494301    1.835929
H     -0.607216    2.932145    0.991399
H      3.910914   -2.068484    1.122940
H      5.195612   -0.090967    0.690705
H      1.751158   -3.230071    1.203683
H      5.296660    2.306639   -0.012805
H     -0.312816    1.349853   -0.891147
H     -2.305188   -0.027853   -1.346493
H      0.329731   -1.029193   -1.843796
