32

C      3.348443    0.620673   -0.103752
C     -2.819853   -1.227092   -0.254191
C     -2.636113    1.163358    0.064682
C      1.619655   -1.060141   -0.796064
C      0.188122   -1.390526   -0.421323
C      1.227328    0.434369    1.082965
C      2.319324   -0.375369    0.380574
C     -0.594516   -0.101451   -0.517848
C      0.330727    0.979367   -0.008550
C     -1.892393   -0.143093    0.234905
O     -0.288803    2.149705    0.339610
O     -1.642770   -0.289257    1.596972
H      3.372994    1.485390    0.607520
H      4.365501    0.178228   -0.071592
H      3.099306    1.012780   -1.128726
H     -3.592258   -1.430800    0.517639
H     -3.395294   -0.879703   -1.158059
H     -2.326693   -2.151981   -0.534311
H     -2.498596    1.789928    0.951152
H     -3.720216    1.002767   -0.165137
H     -2.220349    1.654811   -0.862633
H      1.703359   -0.481125   -1.726516
H      2.206983   -2.007530   -0.962073
H      0.208870   -1.821172    0.580286
H     -0.189652   -2.092586   -1.198948
H      1.677749    1.274801    1.640045
H      0.717290   -0.237761    1.773870
H      2.795083   -1.099033    1.057029
H     -0.804429    0.062990   -1.596579
H      1.019942    1.235130   -0.867437
H      0.371323    2.888446    0.301855
H     -1.950064   -1.144125    1.963630
