38

C      2.988782    1.470368   -0.603970
C      2.989640   -0.075018    1.184784
C      4.379900    1.364520   -0.681524
C      4.374521   -0.211939    1.144099
C     -1.473588   -2.455704    0.380416
C     -0.109695   -2.095525    0.985243
C      0.829792    0.839040    0.437350
C     -3.503801   -1.022826    0.120090
C     -1.991624    1.092407   -0.645781
C     -5.577063    1.769082   -0.908182
C      2.303377    0.742536    0.337118
C     -2.116401   -1.153411    0.042035
C      5.048150    0.516814    0.203635
C     -1.330871   -0.092644   -0.344347
C      0.143868   -0.185267   -0.441279
C     -4.136616    0.162133   -0.183684
C     -3.360760    1.234137   -0.572633
N      0.626629   -1.474523   -0.081455
O      6.440115    0.415489    0.120723
O     -5.483202    0.553628   -0.187762
O     -4.261694    2.267868   -0.808107
H      2.519910    2.134591   -1.305411
H      2.477057   -0.658556    1.933979
H      4.950291    1.914931   -1.400683
H      4.925127   -0.857814    1.812537
H     -2.067573   -3.073164    1.053877
H     -1.251946   -2.962247   -0.588123
H      0.398966   -2.980575    1.367316
H     -0.303625   -1.340216    1.771369
H      0.525020    1.873286    0.216819
H      0.561441    0.645071    1.495765
H     -4.087935   -1.874407    0.426338
H     -1.395317    1.939215   -0.951621
H     -5.765936    1.520693   -1.977137
H     -6.329371    2.460910   -0.492426
H      0.394440   -0.010395   -1.518301
H      0.839441   -2.110998   -0.861256
H      6.830553   -0.281487   -0.479808
