41

C      4.036022   -0.075256    1.497492
C     -4.337676    0.342961    2.439031
C     -3.484077    0.654692   -1.264303
C      4.676241    0.706940    0.410156
C     -4.353142    0.830294    1.027672
C      3.742569    1.365047   -0.527235
C      2.913631    0.470440   -1.339629
C      1.974301   -0.456194   -0.635247
C      1.220848   -1.193196   -1.754015
C      0.223340   -2.178821   -1.228817
C     -2.000222    0.360548    0.641975
C     -3.386512    0.083454    0.135233
C     -0.837894   -1.561343   -0.396477
O     -1.709802   -2.313843    0.156373
O     -0.984143   -0.219941   -0.152117
H      4.229042   -1.159536    1.388131
H      2.988831    0.148041    1.685956
H      4.591533    0.242325    2.457340
H     -4.556466   -0.746178    2.461074
H     -5.150083    0.873411    2.983699
H     -3.415055    0.519714    2.990128
H     -2.862866    1.573974   -1.368906
H     -4.498789    0.919518   -1.558753
H     -3.009830   -0.105437   -1.946260
H      5.422332    0.046073   -0.140340
H      5.347402    1.523734    0.834310
H     -4.120486    1.913147    0.978140
H     -5.361566    0.678699    0.616685
H      4.291782    2.111814   -1.198631
H      3.045310    2.074048    0.047536
H      3.528807   -0.177451   -2.034441
H      2.338626    1.111374   -2.093320
H      1.289261    0.095697    0.025734
H      2.467722   -1.254255   -0.042717
H      1.925345   -1.653649   -2.446300
H      0.656053   -0.408650   -2.298724
H     -0.229701   -2.662264   -2.140152
H      0.712935   -3.035780   -0.693829
H     -1.815365    1.465289    0.617291
H     -1.882066    0.073167    1.722205
H     -3.626195   -0.982610    0.144053
