44

C      6.843038    1.001130    0.509841
C     -5.934372    0.213342    1.687543
C     -5.589476    1.085412   -1.381218
C     -1.567181   -0.615912    2.727365
C     -2.912131   -0.371263    2.561190
C     -0.717631   -0.425997    1.653959
C      5.259515    0.701096   -1.439584
C      4.717398   -0.317472    0.630297
C      4.076219    0.155284   -1.993261
C      3.553395   -0.871439    0.122881
C      0.497988   -1.110238   -0.843851
C      5.583329    0.461755   -0.120113
C     -4.660344    0.337318    0.921177
C     -4.499194    0.691876   -0.411825
C      3.262767   -0.605153   -1.228333
C     -3.370018    0.058876    1.328334
C     -1.157440    0.005189    0.401931
C     -0.134325    0.261687   -0.678017
C     -2.497640    0.239433    0.273297
O     -0.683771    0.669533   -1.859342
O      2.031766   -2.850952   -2.140156
O      1.521036   -0.689154   -3.245699
O     -3.238098    0.627715   -0.753191
S      1.818910   -1.357474   -1.899549
H      7.259134    0.111483    1.095690
H      7.507420    1.339868   -0.285261
H      6.606669    1.802838    1.262021
H     -6.010449   -0.861809    2.052856
H     -6.012528    0.816422    2.576817
H     -6.780849    0.370156    1.009185
H     -6.251127    0.159282   -1.510442
H     -6.182579    1.942393   -1.073795
H     -5.207867    1.285901   -2.391342
H     -1.175403   -0.955097    3.687097
H     -3.624236   -0.506599    3.366055
H      0.361720   -0.588045    1.752739
H      5.931427    1.294309   -2.041034
H      4.961023   -0.511457    1.671380
H      3.871173    0.370909   -3.032744
H      2.878289   -1.484769    0.695322
H     -0.418884   -1.751051   -1.170804
H      0.695839   -1.489897    0.186250
H      0.590852    1.007370   -0.326522
H     -1.203367    0.001333   -2.347143
