38

C     -5.248770    0.495641    1.160342
C      3.761855    1.251081    0.365747
C      3.782960   -2.542663   -0.065443
C     -4.253954    0.687593    0.034428
C      4.004132   -0.208967    0.455649
C     -3.104825   -0.283413    0.163202
C     -2.101466   -0.126329   -0.937828
C     -1.471770    1.227916   -1.003878
C     -0.732583    1.623324    0.232095
C      1.745669   -1.304377   -0.033676
C      3.166652   -1.112091   -0.361489
C      0.397342    0.718376    0.582835
O      1.025932    1.020280    1.624249
O      0.787945   -0.363741   -0.105223
H     -6.286578    0.553276    0.792194
H     -5.075281   -0.511132    1.630093
H     -5.124877    1.282102    1.935960
H      4.689930    1.760488   -0.050615
H      3.634156    1.736293    1.379433
H      2.968530    1.549007   -0.341163
H      4.864654   -2.507452   -0.215214
H      3.300640   -3.287142   -0.693720
H      3.585998   -2.771823    0.999560
H     -4.780126    0.559159   -0.915030
H     -3.850703    1.730430    0.111845
H      5.094180   -0.405425    0.183719
H      3.924985   -0.539486    1.531816
H     -3.538668   -1.301556    0.074159
H     -2.614910   -0.189419    1.146124
H     -1.348974   -0.909659   -0.820732
H     -2.680661   -0.288212   -1.896460
H     -2.281913    1.976770   -1.147060
H     -0.822094    1.311825   -1.902272
H     -0.433640    2.674772    0.224473
H     -1.463847    1.516979    1.087588
H      1.766512   -1.811623    1.017971
H      1.343332   -2.212351   -0.632498
H      3.370238   -0.998451   -1.455383
