25

C     -2.304887    0.648490   -1.228655
C      3.213221    1.001291   -0.248703
C     -1.209864    0.520904    1.556262
C     -1.969495   -0.639518   -0.529839
C      2.745624   -0.310508   -0.824693
C      0.383593   -0.009067   -0.193041
C     -0.851044   -0.478905    0.478066
N     -0.650577   -1.767692    1.110628
O      0.387586    1.093781   -0.793692
O      1.551580   -0.754541   -0.181276
H     -3.283775    0.469325   -1.760759
H     -2.496987    1.488852   -0.542339
H     -1.580464    0.900794   -2.040286
H      3.019516    1.796002   -1.023245
H      2.635926    1.191957    0.684476
H      4.296596    0.954680   -0.060656
H     -0.355692    0.565926    2.262944
H     -1.341022    1.529098    1.138055
H     -2.085356    0.174809    2.157819
H     -1.623993   -1.357458   -1.294688
H     -2.885269   -1.043705   -0.085380
H      2.646453   -0.281971   -1.920842
H      3.510651   -1.093812   -0.588983
H     -1.554429   -2.190222    1.363503
H     -0.197893   -2.408509    0.405309
