44

C     -2.458158    3.310367    0.982946
C     -0.986949   -0.804547   -2.541059
C     -0.387594   -4.489016   -0.132206
C      4.374765    0.154150    1.135519
C     -0.723648    0.866553    1.509886
C     -2.268518    2.806176   -0.396161
C      0.263617   -0.204504   -1.994562
C     -1.372819   -3.437914    0.292932
C      3.287926    1.097701    1.589067
C     -1.019382    2.039182   -0.694201
C     -0.822830    0.789423    0.035081
C      0.064782   -1.449993    0.058245
C      1.627846    0.403518   -0.100834
C      0.301723   -0.081518   -0.498868
O      0.923431   -2.018486    0.792684
O      2.531596    0.652547   -0.946095
O     -1.088778   -2.164376   -0.192171
O      1.989760    0.625764    1.238635
H     -3.265191    2.693851    1.481691
H     -1.541521    3.367554    1.562370
H     -2.839472    4.375152    0.899755
H     -0.955950   -1.932639   -2.513257
H     -1.918476   -0.447090   -2.104650
H     -1.007146   -0.570268   -3.642218
H      0.638019   -4.267367    0.167454
H     -0.503647   -4.711707   -1.209289
H     -0.684085   -5.435028    0.402878
H      4.851030   -0.297604    2.005373
H      3.893233   -0.617206    0.466976
H      5.106351    0.682776    0.472909
H     -1.714156    1.033532    1.959564
H     -0.033615    1.640333    1.908541
H     -0.397131   -0.122865    1.943778
H     -2.405448    3.657304   -1.127692
H     -3.141811    2.125535   -0.692431
H      1.105058   -0.911026   -2.261914
H      0.548177    0.751660   -2.505869
H     -1.458538   -3.489513    1.399536
H     -2.377718   -3.730554   -0.100813
H      3.415124    2.113626    1.121941
H      3.303779    1.198681    2.674942
H     -0.121068    2.703195   -0.476173
H     -0.979353    1.940838   -1.806937
H     -1.753214    0.153807   -0.165300
