66

C      8.335807    2.262066   -0.353633
C     -4.814548    1.825972    1.258614
C     -5.728604    0.661326    1.389007
C     -1.284612   -1.433226    1.251613
C     -0.778070    0.780908    0.227890
C      4.251675    0.261700    0.100412
C      5.099411   -1.327430   -1.539717
C      0.041254   -1.016581    1.902267
C      0.521860    0.107152   -0.205713
C      5.468880    0.641894    0.383555
C      6.307815   -0.949029   -1.257528
C     -6.019544   -1.585128    1.818994
C     -4.650422    2.959412   -0.836830
C     -3.526415    2.233489   -2.782701
C      3.214825   -1.891552   -0.144973
C     -4.565879   -3.319618    1.076558
C      3.094369   -0.181841   -1.954690
C     -1.839864   -0.127597    0.690578
C     -4.276924    1.827410   -0.125286
C     -5.166318   -0.665081    1.177377
C     -5.693995   -2.915283    1.752712
C     -4.296865    3.186182   -2.142088
C     -3.130874    1.095634   -2.121919
C      2.076404   -1.671985    0.699262
C     -3.506149    0.898247   -0.798532
C     -3.002126   -0.354384   -0.230700
C     -4.055943   -1.095479    0.515408
C      3.847307   -0.751128   -0.873106
Br    -6.825670   -4.190172    2.609271
Br    -2.097403   -0.203948   -3.049849
Cl    -4.803097    4.643129   -2.986957
N      2.493779    0.296049   -2.831259
N     -3.793106   -2.410733    0.487511
N      0.965234   -0.865471    0.729414
N      6.551350    0.042257   -0.294038
O      2.104849   -2.493933    1.769700
O      8.487427    0.321289    1.501666
O      9.130635   -0.258886   -0.792641
S      8.187556    0.521923    0.054571
H      7.417000    2.749226   -0.013394
H      8.424973    2.294443   -1.464926
H      9.219125    2.695331    0.120608
H     -5.446289    2.745194    1.377445
H     -4.069581    1.813718    2.049639
H     -6.284231    0.702343    2.354792
H     -6.538131    0.800041    0.611594
H     -1.089872   -2.127709    0.410915
H     -1.908193   -1.841913    2.048542
H     -0.485084    1.542561    1.015766
H     -1.116902    1.391453   -0.618917
H      3.438338    0.753074    0.654358
H      4.922735   -2.078988   -2.270394
H      0.415126   -1.754316    2.608020
H     -0.062645    0.011164    2.297060
H      0.365094   -0.277420   -1.219320
H      1.251924    0.935034   -0.243765
H      5.655314    1.404198    1.124855
H      7.186720   -1.376201   -1.748093
H     -6.898825   -1.255790    2.344465
H     -5.262453    3.706120   -0.312616
H     -3.241766    2.404212   -3.816532
H      4.054633   -2.361875    0.487833
H      3.025572   -2.704930   -0.919925
H     -4.351841   -4.389804    1.053717
H     -2.295257    0.359456    1.612842
H     -2.649494   -0.996177   -1.070337
