44

C      3.467740   -1.600781   -0.699332
C     -1.259333    0.786968   -2.199495
C     -1.970215   -3.979423   -0.446977
C     -2.179777    3.879360    1.116656
C      2.376763    1.033329    0.292977
C      2.130820   -2.101634   -0.219219
C      0.092334    0.395847   -1.632980
C     -2.207234   -2.588006    0.128647
C     -0.866966    3.583589    1.811568
C      1.526533   -1.290625    0.852667
C      1.210197    0.124458    0.635587
C     -1.167615   -0.416164    0.225194
C     -0.366511    1.884177    0.206933
C     -0.009186    0.466615   -0.154075
O     -2.114584    0.023923    0.903154
O     -0.508320    2.722954   -0.709578
O     -1.131485   -1.731348   -0.211874
O     -0.528246    2.220375    1.543248
H      3.986685   -0.935295   -0.016959
H      3.354985   -1.102498   -1.686243
H      4.132002   -2.483490   -0.922257
H     -1.636644    0.069420   -2.956145
H     -1.219316    1.786582   -2.724987
H     -1.982920    0.939163   -1.376364
H     -1.936281   -3.956003   -1.546487
H     -2.765792   -4.657926   -0.116353
H     -1.011083   -4.387969   -0.067323
H     -2.001156    4.387526    0.149625
H     -2.739543    2.946086    0.946316
H     -2.767081    4.562190    1.767356
H      3.158165    0.991950    1.086408
H      1.949118    2.079870    0.425561
H      2.731009    0.968890   -0.728292
H      1.462329   -2.387309   -1.057049
H      2.365708   -3.113735    0.256910
H      0.823603    1.133406   -2.057140
H      0.302622   -0.601487   -2.053420
H     -3.170868   -2.232132   -0.253198
H     -2.260451   -2.673183    1.218952
H     -0.981749    3.648207    2.924053
H     -0.085188    4.254760    1.439627
H      2.251274   -1.378221    1.736225
H      0.611821   -1.791666    1.285044
H      0.933837    0.519249    1.688557
