38

C     -2.448813    1.287041    1.199434
C      0.094011    1.801509    0.623551
C      0.186576   -0.998487    1.782338
C     -1.595342   -2.052090   -0.301038
C     -2.438440   -0.947499    0.182523
C      1.287469    1.070465   -1.853611
C      3.611564    0.412985   -0.889135
C     -0.151294   -1.811345   -0.473110
C     -0.136125    0.796391   -1.576589
C      3.964164   -0.373796    0.158101
C     -1.922776    0.436270    0.030413
C      2.232567    0.400771   -0.933465
C      1.786806   -0.384345    0.076677
C     -0.437796    0.563003   -0.089187
C      0.324214   -0.635725    0.342280
O      2.865623   -0.828942    0.706927
H     -1.787842    1.273629    2.061177
H     -2.736588    2.300490    0.875458
H     -3.413256    0.803945    1.537289
H     -0.709925    2.523136    0.862494
H      0.821302    2.367253   -0.013169
H      0.650533    1.548845    1.545406
H      1.146676   -1.516554    2.088377
H     -0.586989   -1.793961    1.970764
H      0.077256   -0.167706    2.479512
H     -1.980334   -2.480345   -1.276456
H     -1.725087   -2.919772    0.414810
H     -2.763269   -1.106439    1.256851
H     -3.431786   -1.026672   -0.361395
H      1.518202    0.682301   -2.889326
H      1.551078    2.156040   -1.906274
H      4.307785    0.937266   -1.546209
H      0.452689   -2.693751   -0.102510
H      0.154342   -1.735242   -1.553872
H     -0.612750    0.028615   -2.214470
H     -0.709515    1.744463   -1.814321
H      4.982161   -0.574431    0.465757
H     -2.427091    0.912684   -0.866003
