50

C     -1.966054    0.050809    0.982744
C      2.658036   -2.129020   -1.820543
C     -4.392616    0.866087   -0.423719
C      4.407118   -1.433934    0.197686
C     -3.105985    1.585573   -0.680302
C      3.230680   -0.593199   -0.072438
C     -5.288177    1.268126    0.469907
C      5.719378   -0.740491    0.034283
C     -7.496063    0.901004    1.599337
C      5.617674    1.728526    0.625133
C     -8.515634   -0.056793    1.492023
C      6.006522    2.467877    1.739298
C     -1.183108    0.237029   -1.319204
C      1.214009   -0.026551   -1.250605
C     -6.959057   -0.586055    0.069448
C      6.494515    0.398162    2.146936
C     -2.016673    0.577503   -0.366250
C      2.370357   -0.899658   -1.035124
C     -6.523352    0.554136    0.697500
C      5.931602    0.419767    0.895191
C     -0.109129   -0.728961   -1.082324
O     -0.210394   -1.484176    0.043418
O     -8.146403   -0.920070    0.566870
O      6.511047    1.634858    2.592454
H     -2.723522    0.552419    1.640517
H     -2.298627   -1.020802    0.969683
H     -1.008809    0.124352    1.513114
H      1.946425   -2.271831   -2.653700
H      3.667587   -2.044054   -2.312160
H      2.576491   -2.992229   -1.150638
H     -4.641867   -0.030224   -0.973895
H      4.376010   -1.818377    1.258284
H      4.390048   -2.327992   -0.430562
H     -3.024729    1.942675   -1.711255
H     -2.948074    2.413352    0.010674
H      3.091663    0.295301    0.552078
H     -5.040891    2.162103    1.019851
H      5.900061   -0.449891   -1.028288
H      6.515379   -1.499931    0.250095
H     -7.531437    1.728605    2.281951
H      5.164777    2.173357   -0.240791
H     -9.413600   -0.038799    2.083953
H      5.930611    3.530985    1.921266
H     -1.334439    0.713503   -2.305011
H      1.306792    0.888385   -0.671743
H      1.246779    0.293750   -2.335348
H     -6.475287   -1.171064   -0.707531
H      6.871800   -0.455734    2.708700
H     -0.143259   -1.448763   -1.959789
H     -0.648173   -2.339643   -0.161143
