45

C     -3.296274   -2.927682   -0.834741
C      1.399800    1.947546    2.609385
C     -1.635914    4.694146    0.182611
C      4.353382   -1.204724   -0.143179
C     -2.337678   -0.238795    0.044954
C     -1.856865   -3.006363   -1.222146
C      1.449568    0.873908    1.868252
C     -0.677171    3.756364   -0.470779
C      3.211716   -2.165757   -0.348978
C     -0.879985   -2.203045   -0.458168
C      0.245043    0.038129    1.544845
C     -1.042166   -0.733884   -0.495179
C      0.076546    1.445809   -0.421272
C      1.443623   -0.493890   -0.442170
C      0.115164    0.052423    0.036715
O      0.863602    1.814745   -1.365484
O      2.119323    0.070125   -1.337871
O     -0.738180    2.448287    0.060495
O      1.970999   -1.653717    0.097770
H     -3.785422   -3.966261   -0.885912
H     -3.869763   -2.369245   -1.614759
H     -3.489277   -2.609920    0.185263
H      0.469774    2.290323    3.032420
H      2.311148    2.499581    2.799402
H     -1.071058    5.618607    0.474550
H     -2.019297    4.275321    1.136874
H     -2.454886    4.965338   -0.519021
H      4.365387   -0.371790   -0.875340
H      4.341178   -0.751239    0.876779
H      5.301385   -1.774864   -0.311996
H     -2.488741   -0.698252    1.065070
H     -2.324312    0.875954    0.241363
H     -3.207407   -0.389739   -0.589435
H     -1.575127   -4.103506   -1.103688
H     -1.730663   -2.870863   -2.347007
H      2.384561    0.517069    1.434470
H     -0.840473    3.749873   -1.575269
H      0.384125    4.094764   -0.330047
H      3.435820   -3.151741    0.057766
H      3.129850   -2.307136   -1.467022
H      0.132645   -2.471412   -0.897797
H     -0.919201   -2.518150    0.609145
H      0.469695   -0.975180    1.942528
H     -0.655097    0.397820    2.054451
H     -1.079378   -0.468980   -1.614544
