38

C     -2.816977   -1.224671    0.133402
C     -0.597129   -1.148781    1.437228
C      0.477143    1.297649    1.513144
C     -1.390816    2.233239   -0.427770
C     -2.336620    1.118223   -0.185116
C      1.529389   -2.017657   -0.415706
C      3.718677   -0.576368   -0.793024
C     -0.073334    1.699089   -0.877767
C      0.140858   -1.601296   -0.833758
C      3.918948    0.782324   -0.699658
C     -1.822549   -0.246006   -0.457715
C      2.383636   -0.821000   -0.495863
C      1.842909    0.406339   -0.237029
C     -0.428900   -0.517542    0.048250
C      0.435896    0.673028    0.131140
O      2.797077    1.320504   -0.372307
H     -2.567969   -2.277966   -0.091808
H     -3.788708   -1.028365   -0.405016
H     -3.022529   -1.030789    1.199435
H     -1.153912   -2.092038    1.383265
H     -1.124444   -0.387118    2.079386
H      0.381171   -1.371407    1.901026
H      1.188003    2.155678    1.441763
H     -0.504802    1.583374    1.892699
H      0.923078    0.575186    2.209584
H     -1.328714    2.868995    0.476503
H     -1.754002    2.928451   -1.241425
H     -3.233116    1.277676   -0.833205
H     -2.747157    1.161127    0.865953
H      1.557520   -2.481303    0.586092
H      1.833876   -2.815855   -1.131763
H      4.424920   -1.335544   -1.042955
H     -0.239078    1.135456   -1.819854
H      0.683220    2.468632   -1.103295
H     -0.546389   -2.447445   -0.936702
H      0.242544   -1.152760   -1.854978
H      4.837675    1.305749   -0.867128
H     -1.839394   -0.416808   -1.563467
