81

C     -7.907444   -1.737977   -2.107601
C      7.874182   -2.345197    1.214437
C      7.854653   -1.994559   -0.132895
C      2.931375   -1.466064   -0.359371
C      5.490391   -2.154936    1.393736
C     -6.872670   -3.347946    0.930191
C     -1.523557    3.831360    0.597474
C      4.947328   -1.224983   -1.996672
C      0.108032   -0.674114    1.185620
C      2.370528    2.079301    0.454780
C     -2.824699   -1.729557   -0.021970
C     -8.726811   -3.097042   -0.213009
C      4.378887   -1.484317   -0.773425
C      6.731815   -2.429030    1.977768
C     -8.205638   -3.670581    0.932616
C      5.430063   -1.802623    0.055547
C      6.610498   -1.731966   -0.670140
C      2.154295   -0.844560   -1.469018
C     -0.292613    2.947139    0.879894
C     -1.164414    0.059791    1.681122
C     -6.577947   -2.594291   -0.188277
C      3.580256    1.893570   -0.440057
C     -1.313562    4.496877   -0.727871
C     -2.669131   -0.276190   -0.172931
C      0.673991   -0.790940   -1.240575
C      0.891168    3.840077    0.910325
C     -0.824849    1.214010    2.527743
C     -5.273651   -2.051544   -0.562518
C      3.199109    1.400108   -1.779502
Br     6.895790   -2.918500    3.808392
Cl    -9.095777   -4.609868    2.119284
N     -0.243661    4.271572   -1.403277
N      6.286824   -1.375555   -1.926830
N      0.039237   -0.729702   -0.211793
N      2.093151    3.457680    0.719560
N     -4.128212   -2.213415    0.254983
N     -1.944691    0.488456    0.574335
N     -0.476149    2.365563    2.159803
N      2.663009    0.339125   -2.020634
N     -7.732197   -2.464512   -0.856136
O      4.200739    3.165444   -0.480241
O     -2.264789    5.362758   -1.246109
O     -3.348628    0.361083   -1.199137
O     -0.038306   -0.817972   -2.491272
O      0.642412    5.206098    1.172413
O     -0.898962    1.005959    3.924122
O     -5.174664   -1.434993   -1.625058
O      3.516220    2.298237   -2.843682
H     -7.635432   -0.651420   -1.979650
H     -7.253335   -2.175631   -2.887241
H     -8.973164   -1.725865   -2.405767
H      8.858323   -2.552787    1.629086
H      8.754545   -1.932036   -0.728697
H      2.613473   -2.536192   -0.288885
H      2.825490   -1.049397    0.631216
H      4.586069   -2.217745    1.983834
H     -6.145288   -3.630538    1.680741
H     -1.675191    4.561622    1.393660
H     -2.448505    3.232328    0.495177
H      4.443030   -0.946252   -2.900751
H      0.992458   -0.169399    1.637161
H      0.151053   -1.711056    1.629022
H      2.614126    1.592607    1.431592
H      1.504391    1.536927    0.064855
H     -2.475962   -2.270261   -0.955639
H     -2.124288   -2.142017    0.763011
H     -9.776724   -3.168446   -0.509652
H      2.284471   -1.622982   -2.313227
H     -0.299978    2.229587    0.034832
H     -1.728725   -0.723988    2.250014
H      4.347081    1.250440    0.066508
H     -0.080331    4.721939   -2.320938
H      6.973088   -1.244256   -2.697348
H     -4.314442   -2.758479    1.154740
H      4.072182    3.508855   -1.396096
H     -1.973287    6.104200   -1.880724
H     -3.180159    1.347165   -1.431419
H     -0.967053   -0.419465   -2.561662
H      1.423102    5.740490    1.585881
H     -1.064078    1.808765    4.549356
H      3.632131    1.942015   -3.784795
