31

C     -1.576383    2.243723    0.599959
C      4.199401    0.003891    0.000584
C     -2.409405   -0.778244    0.085221
C     -1.750913   -0.586606    1.436611
C     -0.802238   -0.424897   -1.712678
C     -1.774953    0.282645   -0.788074
C     -0.482113    0.144330    1.041785
C      0.187797   -1.226667   -0.958669
C      0.511141   -0.756320    0.410825
C      1.844531   -0.094600    0.444567
N     -0.944999    1.087034    0.079571
O      1.387053   -1.238440   -1.704051
O      1.964182    1.041948    0.954493
O      2.979892   -0.697753   -0.075679
H     -2.655909    2.286785    0.408749
H     -1.329435    2.390512    1.686101
H     -1.130250    3.144533    0.087528
H      4.826801   -0.229599   -0.863485
H      4.670870   -0.263973    0.971828
H      4.023099    1.113356    0.048981
H     -2.161174   -1.808479   -0.247220
H     -3.506186   -0.677262    0.143836
H     -2.375294    0.074185    2.036890
H     -1.515990   -1.562247    1.919325
H     -1.342316   -1.075520   -2.444097
H     -0.280454    0.389480   -2.289043
H     -2.535857    0.839735   -1.330790
H     -0.043009    0.625339    1.925517
H     -0.157162   -2.293768   -0.961861
H      0.609510   -1.671146    1.065228
H      1.569763   -0.281975   -1.971951
