57

C      5.319723    1.516230    1.978422
C     -4.803575   -3.581905    0.873433
C     -4.955145    0.981573    1.617314
C     -1.732799    2.680509    0.759682
C      0.016023   -2.786407   -0.176718
C     -2.243251   -2.385597    0.208286
C     -0.652369    1.381158   -1.532548
C      2.033843    1.660354   -0.798962
C      3.607000   -1.877756   -0.435506
C      0.952083    4.168005   -3.183333
C      3.968147    0.904932    1.888378
C     -1.070070   -1.783200   -0.104926
C     -0.023911    0.542247   -0.649845
C      1.310986    0.645849   -0.261379
C      1.294268   -2.170857   -0.721743
C      2.245128   -1.631528    0.239430
C      0.097658    2.401949   -2.063611
C      1.453927    2.543751   -1.693571
C     -3.406622   -1.618790    0.367548
C     -1.076824   -0.387156   -0.259623
C      2.153470   -0.181367    0.632084
C     -3.363989   -0.244127    0.208653
C     -2.180834    0.403469   -0.109649
C      2.075781   -3.233854   -1.456399
O      3.258599    0.836689    2.921473
O      1.628251   -4.067832   -2.252160
O     -4.596460   -2.220890    0.681701
O     -4.540897    0.463401    0.377827
O     -2.035825    1.758440   -0.268289
O      3.389417   -3.101117   -1.072771
O     -0.213905    3.407051   -2.958721
O      1.953500    3.632086   -2.365476
O      3.441647    0.399110    0.708720
H      5.239955    2.329200    2.758390
H      6.084833    0.819468    2.346195
H      5.591700    2.039559    1.046051
H     -4.148518   -4.019185    1.661481
H     -4.585553   -4.119745   -0.069405
H     -5.874607   -3.751123    1.097598
H     -5.435625    0.242144    2.275335
H     -4.040391    1.353134    2.133466
H     -5.616917    1.853925    1.469423
H     -1.272195    3.570359    0.232378
H     -2.608523    3.078853    1.259200
H     -0.931068    2.309185    1.427447
H      0.239399   -3.222870    0.826447
H     -0.278800   -3.636500   -0.835662
H     -2.266356   -3.456287    0.331957
H     -1.640924    1.170923   -1.825111
H      3.072534    1.752084   -0.504340
H      3.715467   -1.056429   -1.195705
H      4.424789   -1.883015    0.288635
H      1.235111    4.188196   -4.254149
H      0.764350    5.213313   -2.869245
H      1.025904   -1.446835   -1.512681
H      2.298031   -2.242404    1.168310
H      1.704431   -0.140370    1.646263
