47

C     -2.650907   -2.375812   -1.620977
C     -0.145664    3.264087   -1.684889
C     -0.382229    3.525155    0.717368
C     -2.777457   -1.969004    1.398276
C      0.444718   -2.492011    2.178787
C     -1.722434   -1.902614   -0.826629
C      4.183963   -0.971470    1.586228
C      4.969342   -1.322401    0.509936
C      2.899610   -0.522154    1.413243
C      4.467956   -1.224781   -0.769945
C     -2.353291    1.368326    0.115764
C     -3.010795    0.002827    0.028705
C      1.252401   -0.095631   -1.696289
C     -0.479562    2.714802   -0.527002
C     -0.952045    1.305203   -0.473371
C      2.383832   -0.418560    0.141201
C      1.148985    0.014605   -0.331377
C      3.184434   -0.773296   -0.922387
C     -0.030035    0.454956    0.410619
C     -0.843270   -0.563542    1.101455
C     -2.053061   -1.091476    0.348188
N     -0.150038   -1.613080    1.678031
N      2.470081   -0.567384   -2.042492
H     -3.686137   -2.168415   -1.414683
H     -2.395305   -2.969214   -2.475768
H     -0.201449    2.704652   -2.621454
H      0.193127    4.287232   -1.722991
H     -1.236818    3.368504    1.399920
H     -0.396901    4.624671    0.485963
H      0.589608    3.364965    1.249127
H     -3.184657   -1.285457    2.187142
H     -1.989461   -2.607764    1.832013
H     -3.545037   -2.597249    0.929446
H     -0.689511   -2.122821   -1.047291
H      4.626972   -1.064923    2.599468
H      5.990113   -1.679102    0.676680
H      2.294871   -0.249706    2.283379
H      5.072497   -1.499833   -1.647398
H     -2.352809    1.678574    1.172385
H     -2.926050    2.077646   -0.506896
H     -3.913260    0.038054    0.671437
H     -3.394378   -0.101394   -1.025633
H      0.512335    0.141500   -2.435951
H     -1.029918    0.892089   -1.466067
H      0.343054    1.185871    1.191299
H     -1.328240   -0.023442    1.985015
H      2.792820   -0.741185   -3.031582
