81

C     -5.220008   -3.893182    0.886753
C     -0.287824   -3.905573    3.005669
C      5.582563    2.435882    2.823944
C      6.000482   -2.138732   -2.758862
C      8.697283    1.234551   -0.661977
C     -5.302398   -2.416376    0.797313
C     -4.975000    2.749077   -1.504487
C      1.709540    1.148259   -0.627077
C      0.948648    1.725625    0.558005
C     -5.117657   -1.856165   -0.529512
C     -3.732229    2.151901   -0.880768
C     -4.885766    4.262587   -1.358445
C      4.430099    0.809200    0.915635
C      4.563830   -0.666078   -0.890252
C     -1.607477    0.595273    0.153720
C     -0.668059   -1.544382    0.518048
C     -0.475509   -4.714958    0.570772
C     -0.872728   -4.772863    1.979084
C      3.773404    0.030668    0.001613
C     -0.583110   -0.168262    0.652001
C      2.287375   -0.104769   -0.067002
C      0.591096    0.457510    1.302750
C      5.807247    0.884496    0.934884
C      5.939803   -0.615546   -0.901686
C     -2.690266   -0.009222   -0.459736
C     -1.768827   -2.158801   -0.109291
C      6.588903    0.187905    0.044171
C     -2.784264   -1.409676   -0.594940
O     -1.740734   -5.609258    2.261477
O     -6.138856    6.886568   -0.130780
O     -4.414708    6.963433   -2.323829
O     -7.047817    7.108482   -2.564127
O     -0.778963   -3.782788   -1.853671
O     -2.786077   -4.574113   -0.825023
O      6.360250    1.715157    1.919102
O      6.702100   -1.344620   -1.830588
O      7.952992    0.272406    0.076525
O     -3.739272    0.736642   -0.973518
O     -3.898121   -1.946700   -1.213633
O     -6.044462    4.808407   -1.937636
O      1.723538   -0.353076    1.151728
P     -5.925594    6.502890   -1.763456
S     -1.576779   -3.833417   -0.479750
H     -6.051265   -4.221001    1.578910
H     -5.364433   -4.337313   -0.115068
H     -4.289254   -4.283017    1.340962
H     -0.842683   -2.943226    3.045910
H      0.762674   -3.637648    2.750598
H     -0.282961   -4.386218    4.023758
H      6.256228    3.101027    3.408287
H      4.810078    3.038724    2.287255
H      5.061309    1.802263    3.565806
H      5.275085   -1.501011   -3.298280
H      6.702097   -2.648836   -3.456989
H      5.420213   -2.885146   -2.166684
H      8.863091    2.117625   -0.021068
H      9.703010    0.846292   -0.938879
H      8.210036    1.504010   -1.620379
H     -4.563364   -1.928604    1.505405
H     -6.291017   -2.046598    1.206229
H     -5.876897    2.416640   -0.954618
H     -5.107636    2.476117   -2.559765
H      0.921933    0.922349   -1.405253
H      2.451956    1.855796   -1.037673
H      1.717049    2.291289    1.167881
H      0.123464    2.356959    0.265228
H     -5.953112   -2.225554   -1.248066
H     -5.430732   -0.746635   -0.458363
H     -2.826447    2.579013   -1.350286
H     -3.762247    2.418558    0.197384
H     -4.806690    4.550954   -0.290729
H     -4.020254    4.680956   -1.893299
H      3.845962    1.367070    1.627922
H      4.098531   -1.312498   -1.653490
H     -1.667180    1.672693    0.200446
H      0.146283   -2.134645    0.893617
H     -0.440477   -5.763722    0.178150
H      0.569528   -4.342812    0.437389
H      2.092168   -0.957911   -0.784125
H      0.369256    0.657366    2.369860
H     -4.419951    7.798336   -2.860123
