81

C     -6.299582   -3.267851   -0.308383
C     -2.402158   -6.918957   -0.628779
C      4.695621    1.575637   -3.312079
C      7.188669    2.276903    3.433678
C      8.206124    2.754548   -0.358278
C     -6.253167   -1.859684   -0.839874
C     -2.953555    3.135017   -0.431208
C      2.862002   -1.578819    1.891562
C      1.729953   -0.599790    2.095604
C     -4.820388   -1.509771   -1.161311
C     -3.561897    2.219946    0.617379
C     -3.301911    4.598018   -0.095996
C      4.444612    0.471797   -0.794176
C      4.982264    0.336355    1.487484
C     -1.083443    0.344531    0.565478
C     -0.441051   -1.914644    0.279010
C     -2.810352   -4.504053   -1.606402
C     -2.897693   -6.000187   -1.649244
C      4.285756   -0.128004    0.434568
C     -0.076481   -0.615176    0.504451
C      3.339676   -1.248301    0.518853
C      1.350775   -0.237365    0.682899
C      5.294956    1.535543   -0.978772
C      5.888001    1.431475    1.400270
C     -2.398689   -0.013360    0.402593
C     -1.778783   -2.327898    0.106725
C      5.983771    1.983007    0.099931
C     -2.733437   -1.381058    0.169051
O     -3.437819   -6.505852   -2.636276
O     -6.952055    6.144954    0.284437
O     -4.672564    6.738700    1.705643
O     -4.806163    7.182538   -0.847212
O     -2.980768   -4.437253    1.022949
O     -0.716368   -4.747399    0.071982
O      5.453980    2.148174   -2.241872
O      6.544762    1.864030    2.410199
O      6.851091    3.047870   -0.028074
O     -3.380765    0.903909    0.456191
O     -4.061631   -1.626760    0.023160
O     -4.684165    4.693705   -0.106781
O      2.206061   -0.837876   -0.196355
P     -5.260283    6.223347    0.228619
S     -2.032395   -4.032333   -0.119490
H     -7.184465   -3.398204    0.354059
H     -6.284233   -3.989161   -1.126073
H     -5.407884   -3.371521    0.364209
H     -3.152377   -7.753338   -0.485898
H     -1.464149   -7.459840   -0.947122
H     -2.199114   -6.516178    0.357462
H      4.847740    2.148196   -4.247032
H      3.594851    1.651088   -3.085286
H      5.007346    0.529182   -3.501029
H      7.841511    3.221534    3.278595
H      6.576766    2.622645    4.349765
H      7.887608    1.533174    3.941308
H      8.290483    2.197635   -1.301509
H      8.724661    2.202118    0.459088
H      8.723651    3.731759   -0.464145
H     -6.594190   -1.165283   -0.014168
H     -6.927518   -1.720198   -1.715308
H     -3.258882    2.863834   -1.442733
H     -1.855727    3.071921   -0.355673
H      3.622671   -1.525914    2.675980
H      2.476941   -2.640726    1.954008
H      0.913440   -1.127884    2.629837
H      2.014037    0.276865    2.716286
H     -4.863257   -0.431571   -1.492386
H     -4.436960   -2.044878   -2.030131
H     -4.674776    2.453330    0.626392
H     -3.221862    2.546930    1.647251
H     -2.786263    5.238984   -0.810428
H     -2.887403    4.798344    0.919456
H      3.904911    0.130902   -1.673010
H      4.926615   -0.073068    2.499212
H     -0.762376    1.380331    0.758621
H      0.346768   -2.634360    0.234888
H     -3.891488   -4.194201   -1.533244
H     -2.343303   -4.107376   -2.527234
H      3.776770   -2.163231    0.062856
H      1.431837    0.887735    0.625810
H     -5.222890    7.512813    1.995838
