69

C      4.055515    1.928269    1.000172
C      4.701549    3.113972    1.274458
C      4.138191    2.409045   -1.304309
C     -3.023755    1.607621    1.308441
C     -5.074674    1.026581    0.293184
C      1.875881   -3.490275    2.600033
C      3.837088   -2.473687    1.776008
C     -3.392168   -1.794618   -2.262299
C      0.114607   -2.918600   -2.893005
C      3.756361    1.544307   -0.300581
C     -3.704396    0.952046    0.295260
C      3.250540   -3.413743    2.592411
C     -1.926096   -1.959405   -2.128185
C      5.081600    3.975517    0.269671
C     -1.235278   -2.761657   -3.037308
C      4.785116    3.597492   -1.037463
C      1.083873   -2.641320    1.803865
C      0.833938   -2.310959   -1.874233
C     -3.685158    2.313245    2.286403
C     -5.791544    1.735133    1.271128
C     -3.958237   -0.659919   -1.504837
C      3.048602   -1.650164    1.002656
C      1.663152   -1.704289    0.988829
C      0.173934   -1.516182   -0.967270
C      0.862480   -0.795472    0.131329
C     -5.063107    2.367167    2.253957
C      1.595069    0.417720   -0.337879
C     -3.008004    0.201356   -0.760808
C      3.051083    0.248702   -0.587870
C     -1.217584   -1.358167   -1.122893
O      4.014279   -4.263791    3.388033
O      5.735148    5.177072    0.532697
O     -1.985415   -3.352322   -4.040486
O      5.166503    4.465742   -2.071309
O     -0.268960   -2.837263    1.922746
O      2.192069   -2.512908   -1.787256
O     -2.948398    2.962042    3.294171
O     -7.190351    1.796264    1.247574
O     -4.640324    0.154593   -2.444162
O     -5.736604    3.085455    3.249568
O      1.457803    1.457190    0.600105
O      3.666267   -0.719897    0.198588
O     -1.915521   -0.555629   -0.223624
H      3.743485    1.227046    1.781630
H      4.914339    3.373089    2.298930
H      3.903174    2.107538   -2.327272
H     -1.934397    1.521172    1.269983
H     -5.722414    0.558063   -0.452722
H      1.426623   -4.231728    3.244724
H      4.916710   -2.425086    1.780681
H     -3.669795   -1.769305   -3.353721
H     -3.817561   -2.781189   -1.892602
H      0.623367   -3.558470   -3.629848
H     -4.688250   -1.100492   -0.759646
H      0.066755   -0.395067    0.848157
H      1.103250    0.747918   -1.289769
H     -2.586991    0.957253   -1.456805
H      3.203386    0.031054   -1.673450
H      5.028064   -4.172588    3.351298
H      5.982306    5.756484   -0.256022
H     -1.608978   -3.947766   -4.751378
H      4.960617    4.210010   -3.025469
H     -1.033614   -2.405039    1.512978
H      2.731203   -3.071398   -2.404484
H     -3.490052    3.463685    3.983597
H     -7.685504    1.317652    0.507914
H     -5.238756   -0.486850   -2.942778
H     -6.745594    3.140731    3.248880
H      1.243553    1.087021    1.491683
