69

C      3.844531    2.323015   -0.373291
C      4.914117    3.134075   -0.685553
C      5.411854    0.689049    0.363761
C     -4.549223    0.067931   -0.966519
C     -4.312963    2.338234   -1.457742
C      1.278311   -4.277377   -1.324887
C      3.358327   -3.342851   -0.736904
C     -3.368886    0.236307    2.427154
C     -0.268634   -1.496896    3.543568
C      4.098314    1.089605    0.155885
C     -3.881370    1.256673   -0.726983
C      2.644743   -4.413759   -1.229825
C     -2.014210   -0.374078    2.452850
C      6.212184    2.724405   -0.474447
C     -1.557879   -0.951392    3.616689
C      6.492039    1.487389    0.057357
C      0.647163   -3.088725   -0.931663
C      0.476560   -1.451386    2.382482
C     -5.573030   -0.028695   -1.871021
C     -5.347791    2.279630   -2.384169
C     -3.359241    1.508827    1.611947
C      2.745011   -2.169764   -0.347668
C      1.381342   -2.017761   -0.435481
C     -0.013185   -0.864966    1.237840
C      0.774697   -0.747638    0.000145
C     -5.996876    1.084699   -2.604627
C      1.721550    0.415644   -0.051893
C     -2.775346    1.358242    0.251676
C      3.043910    0.097598    0.536484
C     -1.299269   -0.313183    1.286340
O      3.241894   -5.604557   -1.627324
O      7.287899    3.565977   -0.799473
O     -2.262236   -1.025650    4.804710
O      7.807521    1.042266    0.284169
O     -0.722670   -2.977593   -1.040151
O      1.745367   -2.028438    2.418989
O     -6.222238   -1.221195   -2.092330
O     -5.741884    3.398616   -3.092370
O     -2.628694    2.465709    2.313901
O     -7.041209    0.928903   -3.509450
O      1.883988    0.748562   -1.404904
O      3.531560   -1.153188    0.130004
O     -1.849257    0.292316    0.161147
H      2.823573    2.644541   -0.532327
H      4.750982    4.129807   -1.111856
H      5.609690   -0.280899    0.780096
H     -4.230011   -0.812170   -0.401904
H     -3.843179    3.298947   -1.327984
H      0.630932   -5.063960   -1.700468
H      4.437546   -3.464153   -0.667413
H     -4.093402   -0.455859    1.963692
H     -3.743048    0.510253    3.430108
H      0.132645   -1.961505    4.435037
H     -4.413054    1.897781    1.582005
H     -0.031650   -0.576091   -0.833392
H      1.280329    1.286648    0.471489
H     -2.206259    2.279543   -0.015659
H      2.972742    0.209905    1.656107
H      3.533466   -5.681282   -2.596674
H      7.162841    4.472334   -1.186834
H     -3.181664   -0.652518    4.874328
H      8.542760    1.689204    0.031736
H     -1.301599   -2.202656   -0.815278
H      2.096445   -2.454752    3.257863
H     -5.926745   -2.033901   -1.569530
H     -6.483894    3.340018   -3.751520
H     -3.146605    3.271527    2.534840
H     -7.437993    1.634138   -4.091171
H      2.308361   -0.009479   -1.880129
