48

C      4.496932   -0.062878    0.325701
C      4.477573    1.306695    0.109142
C      3.297180   -0.733637    0.412381
C      3.299778    1.973766   -0.015478
C     -3.033018   -0.418870    0.639172
C      0.508037   -1.055877    1.809012
C      0.175234   -2.512301    1.706388
C     -3.596290    0.951254    0.405421
C     -1.156123    3.173302   -0.948950
C     -0.379721   -1.449601   -1.747119
C     -1.817520   -2.394765    0.366651
C     -2.191490   -1.077485   -0.114943
C     -1.595920   -0.578167   -1.395951
C      2.084424   -0.088626    0.291090
C      2.081868    1.271619    0.075426
C     -1.943443    1.877843   -0.861058
C      0.182992    3.055003   -0.339813
C     -0.992153    0.747141   -1.062658
C     -0.116735    0.675606    0.168935
C      0.683426   -0.542475    0.360987
C      0.345697   -1.715461   -0.453718
N     -0.396174   -2.635417    0.377821
N      0.802318    1.810090   -0.051485
O      0.820048    4.092056   -0.056668
O      1.520713   -2.420254   -0.812330
O     -2.546061    1.887774    0.401134
H      5.433970   -0.587161    0.423510
H      5.406913    1.878948    0.034015
H      3.287329   -1.780674    0.577610
H      3.315175    3.025147   -0.181188
H     -3.368015   -0.905139    1.534168
H     -0.346370   -0.531509    2.289999
H      1.413904   -0.850178    2.403022
H      1.119804   -3.103053    1.694502
H     -0.479057   -2.885542    2.491090
H     -4.129302    1.029860   -0.544841
H     -4.272464    1.234434    1.218533
H     -1.728718    4.025447   -0.535875
H     -1.006712    3.360216   -2.047281
H      0.266142   -0.824687   -2.386862
H     -0.672284   -2.398091   -2.194551
H     -2.284689   -3.172212   -0.272626
H     -2.198751   -2.574119    1.404070
H     -2.299903   -0.487072   -2.216057
H     -2.757358    1.887820   -1.601811
H     -0.325527    1.009342   -1.920611
H     -0.722480    0.904844    1.088045
H      1.336820   -3.392955   -0.845952
