39

C     -3.802013   -1.045446   -0.493990
C     -4.536932    1.389834   -0.367943
C      5.259681   -0.229905   -1.430675
C     -0.117034   -1.090667   -0.642714
C     -2.029212   -0.624221    1.647796
C     -2.870989    0.477283    1.139079
C     -0.571556   -0.298695    1.672103
C      3.526083   -0.708648    0.340981
C      3.164614    1.011954   -1.287297
C      2.359644   -0.461842    0.909716
C      1.853175    1.360801   -0.727812
C     -3.695265    0.282224    0.141888
C      3.924059    0.072493   -0.802746
C      0.003094    0.029874    0.320681
C      1.408781    0.581239    0.449542
H     -4.019531   -1.824408    0.275363
H     -4.679484   -1.090876   -1.204791
H     -2.931594   -1.286817   -1.132441
H     -5.607451    1.224737   -0.116052
H     -4.501908    1.439949   -1.490111
H     -4.203125    2.388097   -0.020166
H      5.339743    0.326359   -2.379445
H      6.037849    0.112404   -0.697798
H      5.336402   -1.305304   -1.601485
H     -0.659268   -1.985860   -0.275752
H     -0.641997   -0.788105   -1.597843
H      0.854480   -1.487907   -1.006702
H     -2.159769   -1.499107    0.982273
H     -2.335382   -0.875995    2.705478
H     -2.832395    1.483575    1.576485
H      0.029927   -1.113848    2.137720
H     -0.451108    0.583393    2.368843
H      4.197587   -1.493452    0.718929
H      3.550916    1.549003   -2.153590
H      2.121196   -1.084548    1.764625
H      1.935418    2.461931   -0.471795
H      1.042769    1.354202   -1.493995
H     -0.649709    0.867542   -0.074600
H      1.350303    1.298757    1.324363
