48

C      4.449989   -0.530235   -0.309302
C      4.605851    0.818293   -0.541905
C      3.184245   -1.068073   -0.163921
C      3.479060    1.592645   -0.622058
C     -3.091264   -0.423705   -0.470909
C      0.334990   -1.596150   -1.311536
C      0.149811   -2.949468   -0.630390
C     -3.644578    0.975156   -0.637512
C     -0.992433    3.372986   -0.281112
C     -0.471262   -0.721785    2.150175
C     -1.901500   -2.268019    0.315146
C     -2.224516   -0.848689    0.440685
C     -1.627633    0.044722    1.495068
C      2.057026   -0.269805   -0.248238
C      2.201318    1.092536   -0.482205
C     -1.852516    2.213970    0.193028
C      0.386731    2.991167   -0.632619
C     -0.963703    1.154096    0.757703
C     -0.093340    0.634675   -0.364406
C      0.608440   -0.631885   -0.138810
C      0.243845   -1.438926    1.031033
N     -0.532669   -2.590681    0.623555
N      0.909696    1.681779   -0.513773
O      1.159986    3.874813   -1.066852
O      1.424883   -1.951459    1.608813
O     -2.567640    1.791977   -0.924250
H      5.336297   -1.163915   -0.241954
H      5.610201    1.200275   -0.649963
H      3.111967   -2.153032    0.019361
H      3.589542    2.645895   -0.803142
H     -3.427843   -1.175323   -1.162567
H      1.206907   -1.663258   -1.984912
H     -0.607480   -1.332050   -1.821327
H     -0.548057   -3.601682   -1.181770
H      1.091660   -3.470078   -0.454671
H     -4.048511    1.322315    0.354362
H     -4.383744    0.978176   -1.433973
H     -1.502463    3.910229   -1.126678
H     -0.938240    4.107188    0.549544
H      0.215529    0.037880    2.551937
H     -0.823322   -1.454577    2.874777
H     -2.147308   -2.601191   -0.713998
H     -2.542810   -2.884345    0.999474
H     -2.349369    0.418536    2.215535
H     -2.566624    2.593272    0.941881
H     -0.283159    1.649398    1.492437
H     -0.679088    0.606475   -1.327709
H      1.453099   -2.920121    1.627947
