31

C      4.881146    0.348024   -0.529958
C      3.656803    0.378047   -1.381974
C     -4.737389   -0.395509   -0.029582
C     -4.672219   -0.382155    1.341399
C     -3.562494   -0.367659   -0.741366
C     -3.471658   -0.341975    2.014853
C      2.093815   -0.202984    0.474189
C      0.042415    0.045212    1.792767
C      1.178336    0.138990   -1.680459
C      2.449831    0.134317   -0.922773
C      0.717655    0.460680    0.576716
C     -2.347295   -0.327195   -0.085186
C     -2.292900   -0.314105    1.293474
C     -1.202597   -0.301150   -0.994313
N     -1.159793   -0.275223    2.127221
N      0.122721    0.081311   -0.657322
O     -1.481798   -0.659938   -2.162870
H      5.748753    0.026284   -1.140690
H      5.129680    1.344491   -0.114846
H      4.792673   -0.386051    0.293645
H      3.813654    0.619239   -2.437441
H     -5.684075   -0.427181   -0.558638
H     -5.587769   -0.403695    1.915047
H     -3.546287   -0.376251   -1.822997
H     -3.382841   -0.330398    3.092845
H      1.958049   -1.300476    0.535422
H      2.800569    0.190354    1.215272
H      0.715761   -0.017645    2.663479
H      1.082206   -0.699720   -2.382461
H      1.008097    1.073827   -2.240639
H      0.936950    1.565049    0.547185
