41

C      4.143769   -0.550661    1.041583
C      3.738526   -0.399672   -1.335755
C     -1.856831   -0.530476   -2.289896
C     -0.277484    1.248096   -0.895100
C     -2.812609   -0.977590   -0.084370
C      1.637368    0.147533    1.879419
C     -2.066390    1.025297    1.237873
C      0.862968   -0.827825   -0.200479
C      3.285856   -0.285463    0.075561
C     -1.545889   -0.919465   -0.878969
C      1.889785    0.119955    0.380038
C     -3.212938    0.325405    0.531423
C     -0.885864    0.114343    1.207802
C      0.218172    0.520954    2.079283
C     -0.473323   -0.074084   -0.240853
O     -3.789438    1.120236   -0.452996
O     -0.042137    1.217106    3.040707
H      3.848962   -0.477568    2.062771
H      5.151142   -0.843555    0.789468
H      2.986142    0.082583   -1.998498
H      4.679096    0.206798   -1.410470
H      3.921653   -1.453968   -1.621996
H     -2.457208   -1.377401   -2.727514
H     -2.502378    0.360658   -2.382686
H     -0.940119   -0.474944   -2.922095
H     -1.153031    1.596949   -1.478230
H      0.566392    1.200646   -1.641220
H     -0.057225    2.051955   -0.162193
H     -2.801896   -1.827347    0.655065
H     -3.631691   -1.259006   -0.803640
H      2.293721    0.913498    2.334307
H      1.868447   -0.834438    2.344313
H     -1.906893    1.980231    0.690520
H     -2.378083    1.315372    2.262207
H      1.139567   -1.225085   -1.179591
H      0.715693   -1.658717    0.518850
H     -1.143662   -1.973423   -0.918093
H      1.767204    1.162614    0.023911
H     -4.006174    0.094622    1.293285
H     -1.241136   -0.889657    1.575603
H     -3.532063    2.055496   -0.399344
