72

C     -9.923830    2.636145    0.695588
C     -8.512932   -1.919526   -2.190102
C      3.052700   -2.786186   -1.328055
C     -5.940788    1.173184    0.732609
C      0.699116    0.769297    1.227279
C     -7.251306    1.651112    0.717430
C      2.012466    1.150107    1.210784
C     -6.564679   -0.578934   -0.695899
C      1.254833   -1.131128   -0.008271
C      8.460615   -0.665857    1.876854
C     -2.695043    0.173886    1.789501
C     -2.661621   -1.269968   -1.279218
C     -5.563885    0.062669    0.038530
C      0.281622   -0.381413    0.619002
C     -3.085460    0.348946    0.360950
C     -1.975799   -0.219806   -0.445619
C     -8.226684    1.007784   -0.011229
C      3.010700    0.380039    0.567034
C     -7.862357   -0.118928   -0.720573
C      2.596948   -0.773394   -0.043741
C      7.549713   -0.364030    0.717165
C      8.242519    0.635869   -0.198511
C      7.387441    0.986489   -1.382796
C      6.034019    1.422397   -0.880623
C     -4.236682   -0.518375   -0.010368
C     -1.110481   -0.876527    0.585359
C      5.491130    0.372877    0.113874
O      7.812687   -1.483558    2.791084
O      9.472698    0.141247   -0.602920
O      7.985135    2.056974   -2.046578
O      5.107690    1.491673   -1.894760
O     -9.538638    1.486043   -0.026597
O     -8.877005   -0.746473   -1.448123
O      3.498077   -1.597191   -0.701764
O     -3.961040   -0.803888   -1.377619
O     -1.753552   -0.816296    1.804595
O      4.300898    0.806317    0.581692
O      6.403451    0.290143    1.204587
H     -9.496385    2.577307    1.718191
H    -11.028472    2.674628    0.835992
H     -9.527038    3.577940    0.241790
H     -7.731430   -1.592414   -2.907791
H     -9.399341   -2.334347   -2.701228
H     -8.024794   -2.677011   -1.524568
H      3.848015   -3.326417   -1.837738
H      2.478633   -3.437872   -0.615792
H      2.323056   -2.449912   -2.116926
H     -5.186322    1.687816    1.307674
H     -0.018243    1.388686    1.728344
H     -7.508480    2.540380    1.284773
H      2.356783    2.064846    1.691873
H     -6.322311   -1.481585   -1.278275
H      0.981228   -2.056665   -0.510280
H      9.347159   -1.241314    1.502774
H      8.869119    0.263040    2.338096
H     -2.322707    1.137085    2.241234
H     -3.557884   -0.192344    2.410064
H     -2.225298   -1.219391   -2.297530
H     -2.591871   -2.280797   -0.837168
H     -3.253946    1.429288    0.197741
H     -1.434089    0.525159   -1.060240
H      7.294917   -1.294132    0.203133
H      8.422088    1.540473    0.421474
H      7.327266    0.092419   -2.041807
H      6.146163    2.362860   -0.332658
H     -4.156356   -1.489592    0.517162
H     -1.054956   -1.979644    0.314647
H      5.444643   -0.597849   -0.399424
H      6.909344   -1.772150    2.492116
H      9.835563    0.687335   -1.324829
H      7.248542    2.529135   -2.545116
H      5.094729    2.353320   -2.384246
