31

C      4.883659   -0.233055    0.017399
C      3.793292   -0.997235    0.704944
C     -4.741154   -0.512268    0.047786
C     -4.757471    0.693679   -0.620797
C     -3.505069   -1.050652    0.338180
C     -3.594057    1.337823   -0.985642
C      2.031182    0.344980   -0.497395
C     -0.053880    1.521222   -0.753366
C      1.318266   -1.333491    1.010585
C      2.535303   -0.689966    0.430923
C      0.702147    0.716260    0.177300
C     -2.334488   -0.402143   -0.029121
C     -2.350722    0.804792   -0.698272
C     -1.130903   -1.129859    0.366773
N     -1.273406    1.611449   -1.153134
N      0.195093   -0.573145    0.491116
O     -1.288931   -2.334382    0.613270
H      4.648496    0.852040    0.100040
H      4.979556   -0.509786   -1.039604
H      5.842980   -0.379758    0.573292
H      4.021885   -1.783131    1.410070
H     -5.668364   -1.008988    0.329317
H     -5.721748    1.120336   -0.851039
H     -3.405605   -1.983964    0.855055
H     -3.623684    2.292272   -1.514695
H      1.755251   -0.170446   -1.443831
H      2.686262    1.200683   -0.627191
H      0.572980    2.268348   -1.271299
H      1.264753   -2.403105    0.742420
H      1.281853   -1.190960    2.128333
H      0.936525    1.236776    1.148586
