53

C     -1.238844   -1.782821    1.576684
C     -1.909271    0.124078    2.915091
C     -2.304511    0.979559   -3.426327
C      3.147082    3.644445    1.512516
C      2.670016   -3.970171    0.054116
C      1.868848    3.788064    1.026826
C      3.815066    2.467677    1.339751
C      2.201466   -3.650775   -1.212876
C      2.659527   -3.043842    1.072822
C      1.264146    2.722543    0.358216
C      3.198313    1.420865    0.673282
C      1.728485   -2.368996   -1.399068
C      2.182804   -1.795425    0.835673
C     -3.222586    0.791659   -1.181196
C     -2.924894    0.181156    0.152313
C     -1.231225   -0.527958   -1.803416
C     -1.099938   -0.290701    1.680757
C     -2.536936    0.029526   -2.289696
C      1.920305    1.520770    0.170849
C      1.696815   -1.399913   -0.405442
C     -1.460427    0.482654    0.488914
C     -0.681116    0.417939   -0.738586
O      1.489887    0.486033   -2.163675
P      1.084799    0.219185   -0.686179
H     -0.795722   -2.246824    0.703185
H     -2.319268   -2.013220    1.699026
H     -0.671090   -2.206620    2.459454
H     -1.355773   -0.251005    3.797236
H     -2.939914   -0.248744    2.874631
H     -1.860975    1.246167    2.943697
H     -2.480027    2.045901   -3.127140
H     -3.000811    0.798652   -4.273165
H     -1.281939    0.893522   -3.852053
H      3.660079    4.458729    2.045045
H      3.049383   -4.975593    0.229213
H      1.354531    4.727030    1.172568
H      4.835470    2.297940    1.706126
H      2.227641   -4.396674   -1.971392
H      3.031304   -3.328238    2.042861
H      0.254311    2.911208    0.002488
H      3.675302    0.465935    0.504306
H      1.358928   -2.124909   -2.407284
H      2.146536   -1.009165    1.608083
H     -4.323315    0.808027   -1.361584
H     -2.893953    1.854825   -1.153575
H     -3.539905    0.664486    0.919414
H     -3.077940   -0.917731    0.157817
H     -0.504986   -0.446371   -2.662010
H     -1.255508   -1.569501   -1.513896
H     -0.042109   -0.099727    1.970893
H     -3.196339   -0.787751   -2.681603
H     -1.529087    1.567583    0.865792
H     -0.842633    1.436518   -1.249486
