52

C     -3.861152    0.839522    0.504893
C     -4.765134    1.755455    0.994318
C     -5.627970   -0.685685    0.238309
C      1.423821   -0.378931   -1.241930
C      0.028747   -0.655906    0.638441
C     -1.880187   -1.802244   -2.399313
C      6.878817    0.597674    2.136569
C      5.024652    2.142509    1.469785
C     -4.298573   -0.415082    0.115359
C      1.265667   -0.253421    0.116526
C     -0.774391   -1.264558   -1.558989
C     -6.111211    1.491311    1.122472
C      0.430328   -0.873480   -2.073644
C     -6.549486    0.243601    0.735588
C     -3.181087   -1.221671   -1.897384
C     -0.959368   -1.148956   -0.196948
C     -3.376865   -1.443755   -0.420369
C      4.603374   -0.125287    1.373252
C      3.512003    0.677697    0.655384
C      5.764229    0.858116    1.160671
O      7.837804    1.570979    1.960430
O     -7.014709    2.418968    1.616215
O      0.619655   -0.989633   -3.450986
O     -7.896045   -0.059487    0.849440
O     -4.212053   -1.795950   -2.640301
O      4.841021   -1.332657    0.780060
O      6.191537    0.825857   -0.142469
O      3.749949    2.005742    0.993085
O      2.244165    0.235940    0.952605
O     -2.193328   -1.553657    0.302602
H     -2.819109    1.075523    0.417175
H     -4.436842    2.750125    1.306113
H     -6.072123   -1.649300   -0.042695
H      2.346559   -0.087784   -1.699652
H     -0.123236   -0.568861    1.698462
H     -1.754459   -1.538816   -3.455270
H     -1.957531   -2.918182   -2.301106
H      6.454955    0.557593    3.158039
H      7.311157   -0.379979    1.910651
H      5.558232    3.044057    1.110875
H      4.949403    2.178066    2.595676
H     -3.158934   -0.138917   -2.143480
H     -3.903583   -2.432989   -0.313579
H      4.334854   -0.186830    2.429450
H      3.724809    0.597331   -0.426751
H      7.649123    2.154460    1.173243
H     -7.983865    2.206501    1.698732
H      1.463415   -0.731039   -3.924237
H     -8.239907   -0.978766    0.567312
H     -4.729453   -2.389507   -2.025479
H      4.000634   -1.697203    0.406470
H      5.671690    1.471512   -0.689014
