63

C      3.194248    1.003124    4.355162
C      3.102088   -3.333115   -1.933537
C     -1.862963   -3.365604    2.617142
C     -5.626876    1.545476   -1.430788
C      4.066781    1.548041    3.471962
C      2.055300    0.399067    3.860413
C      2.321171   -3.173878   -0.819882
C      3.667608   -2.231251   -2.513228
C     -1.965447   -2.165957    3.294565
C     -1.671554   -3.357604    1.248681
C     -5.031380    0.321285   -1.677392
C     -4.995697    2.483323   -0.645266
C      3.830055    1.503796    2.119937
C      1.824234    0.358334    2.503017
C      2.113812   -1.913981   -0.297300
C      3.451877   -0.977998   -1.980258
C     -1.878942   -0.969003    2.621297
C     -1.587951   -2.141852    0.595290
C     -3.779905    0.033917   -1.125342
C     -3.755498    2.168082   -0.112461
C      1.304284    1.339812   -2.970383
C      0.298165    0.485597   -3.238988
C     -0.635024    2.352564   -2.253477
C      0.864752    2.293924   -1.902897
C     -0.777288    0.819039   -2.269911
C      2.707967    0.912368    1.575859
C      2.666587   -0.770100   -0.851468
C     -1.689531   -0.943659    1.266313
C     -3.141827    0.961527   -0.340829
C      0.797006    1.535798   -0.622229
C     -0.257659    0.487707   -0.894527
O      3.423977    1.779492   -0.829738
O     -1.199742    1.666990    1.375955
P      2.394244    0.850801   -0.171459
P     -1.571942    0.607614    0.354755
H      3.383408    1.039181    5.424639
H      3.234738   -4.349192   -2.306991
H     -1.932516   -4.314725    3.157883
H     -6.608308    1.792027   -1.853790
H      4.964965    2.027189    3.819303
H      1.363679   -0.033909    4.576425
H      1.863183   -4.057128   -0.348716
H      4.282602   -2.370062   -3.392761
H     -2.116565   -2.193949    4.376009
H     -1.594909   -4.303462    0.744261
H     -5.551260   -0.400836   -2.300824
H     -5.501671    3.422900   -0.482847
H      4.552627    1.950357    1.460651
H      0.946438   -0.108417    2.140034
H      1.497617   -1.839935    0.571816
H      3.913193   -0.128611   -2.462341
H     -1.960649   -0.021431    3.161799
H     -1.437608   -2.164195   -0.478260
H     -3.367158   -0.945885   -1.357757
H     -3.295263    2.935908    0.499639
H      2.256043    1.286267   -3.485430
H      0.299295   -0.281432   -4.012643
H     -1.215288    2.796476   -1.444726
H     -0.801743    2.775638   -3.247843
H      1.348064    3.240647   -1.903370
H     -1.755917    0.475725   -2.508333
H      0.457411    2.190132    0.183466
H      0.120664   -0.532951   -0.908281
