28

C      2.526766   -1.452795   -0.096734
C      2.900783    0.941704    0.168018
C     -3.633089   -0.036354    0.783620
C     -0.097272    1.310502   -0.035546
C     -1.302457    1.041169    0.834923
C      1.887309   -0.164797    0.369030
C      0.636213    0.044284   -0.413694
C     -0.278017   -1.084576   -0.172435
C     -1.690205   -0.991757   -0.578059
C     -2.312120    0.165003    0.138841
O      0.125979   -2.086777    0.356999
O     -2.163076    0.127150   -1.239207
H      2.432029   -2.263394    0.659588
H      2.059172   -1.793831   -1.035559
H      3.623835   -1.301290   -0.273875
H      2.929254    1.280163   -0.876698
H      2.762002    1.779488    0.888598
H      3.899624    0.491812    0.386584
H     -3.518810    0.091248    1.872431
H     -3.986384   -1.083634    0.631430
H     -4.426603    0.621314    0.369296
H      0.541987    2.027817    0.516810
H     -0.439932    1.809530   -0.973368
H     -0.969212    0.634746    1.801268
H     -1.792341    2.020923    1.010031
H      1.663008   -0.255104    1.453800
H      0.888186    0.061910   -1.501437
H     -2.266631   -1.934454   -0.661536
