81

C      5.404502    2.977224   -1.162189
C     -5.197539   -0.724641    1.604389
C     -5.325174   -0.610980   -0.815152
C      4.202332   -2.041896   -0.663908
C      1.071593   -0.124886    1.974854
C     -0.411818   -2.018944   -0.853572
C     -2.504280   -0.054822   -2.042238
C      5.562610    0.125414   -0.195755
C     -2.694154   -1.642005    0.760939
C      5.174226   -0.684035    1.058634
C     -1.276618   -1.495062    1.313456
C      3.072969   -2.026027    1.504757
C      1.643380   -2.204954    1.013604
C      1.288770    0.651529   -1.389008
C     -3.621440    2.246745    0.551776
C      4.352660    2.170101   -0.505410
C      4.237837    0.704534   -0.709298
C      1.901415   -0.294939   -0.433425
C      0.000720    1.278025   -0.943239
C     -3.142512   -0.247835    0.417368
C     -4.880680    1.429024    0.528816
C     -2.769642    1.884302   -0.640345
C      3.212097    0.103263    0.161352
C     -0.889589    0.393747   -0.158628
C     -4.612838   -0.047529    0.352293
C      3.876719   -1.227041    0.563650
C      1.038160   -0.825056    0.664298
C     -0.379370   -0.960599    0.181334
C     -2.341050    0.416523   -0.656537
O      3.563142    2.726537    0.220871
O      0.349823    2.484805   -0.336008
O     -5.610285    1.850845   -0.606633
O     -3.595714    2.189103   -1.750431
H      5.791152    2.485443   -2.087953
H      6.254397    3.188818   -0.451368
H      4.966359    3.975783   -1.381557
H     -4.547954   -0.525608    2.467215
H     -6.180856   -0.230038    1.843739
H     -5.332873   -1.804517    1.390739
H     -5.071250   -1.660107   -0.988006
H     -5.287357    0.022977   -1.737750
H     -6.426795   -0.618153   -0.550942
H      3.496332   -2.832312   -0.899629
H      5.175569   -2.571431   -0.435822
H      4.383777   -1.459303   -1.563615
H      0.513469   -0.818482    2.683786
H      2.046956   -0.061891    2.477829
H      0.584286    0.827426    2.073794
H     -1.356659   -2.235170   -1.346515
H     -0.230653   -2.990576   -0.288999
H      0.354771   -1.944468   -1.645928
H     -2.955483    0.709400   -2.751686
H     -1.470664   -0.158681   -2.494341
H     -3.141794   -0.933808   -2.205566
H      6.064972   -0.494336   -0.939724
H      6.264146    0.882094    0.151985
H     -3.309950   -1.938086    1.663000
H     -2.836561   -2.400477    0.026050
H      5.108683   -0.048806    1.942170
H      5.901710   -1.527843    1.169726
H     -1.407175   -0.670488    2.077528
H     -0.919161   -2.433427    1.733473
H      3.506547   -3.075154    1.471376
H      3.142344   -1.759787    2.569515
H      1.096197   -2.683937    1.827286
H      1.737522   -2.831594    0.106453
H      2.037022    1.437288   -1.633252
H      1.067830    0.211920   -2.412050
H     -3.106251    2.322599    1.499250
H     -3.960945    3.305354    0.323817
H      4.110137    0.544152   -1.789782
H      2.158385   -1.198680   -1.083841
H     -0.594917    1.600169   -1.852183
H     -2.840814    0.323636    1.360796
H     -5.515737    1.663689    1.393052
H     -1.950694    2.590802   -0.700086
H      3.137410    0.777814    1.033872
H     -1.029711    0.911490    0.845289
H      0.055772    2.591186    0.577423
H     -6.554235    1.972395   -0.423024
H     -3.627512    3.162259   -1.822319
