80

C      9.333508    0.857982    1.907580
C      8.844155   -1.469735    1.433035
C     -9.048919   -1.530581   -1.410838
C    -10.379921    0.436217   -0.828275
C      0.857806   -0.191905   -0.505000
C     -0.529367    0.327472   -0.177620
C      1.473767    0.546805   -1.627248
C     -1.119154   -0.430638    0.948036
C      3.220162    1.924764   -2.556845
C     -2.808982   -1.889255    1.951172
C      8.132499   -0.091547   -1.261113
C     -7.565818    1.389014   -0.050505
C      6.802901   -0.145682   -1.978373
C     -6.107107    1.336446    0.395431
C      4.715750    2.058458   -2.447007
C     -4.325894   -1.782596    1.706782
C      3.263579    1.175642   -0.119953
C     -2.944939   -1.211732   -0.473110
C      8.680673   -0.016512    1.177544
C     -9.158232   -0.426707   -0.687386
C      2.607942    1.187428   -1.432132
C     -2.217539   -1.119017    0.784962
C      7.785491    0.429656    0.107402
C     -8.139062    0.039254    0.279050
C      5.736996    0.253145   -1.029696
C     -5.957939    0.020026    1.113092
C      5.279887    1.677578   -1.129722
C     -4.545317   -0.478128    1.015451
C      6.348652   -0.035287    0.324596
C     -6.933804   -0.869577    0.371663
O      6.315154   -1.385003    0.571927
O     -7.290437   -1.995741    1.075672
O      4.416397    1.954993   -0.086185
O     -4.192916   -0.577956   -0.325329
H      9.220687    1.913679    1.728997
H      9.987016    0.523575    2.690946
H      8.532287   -2.118004    0.607537
H      8.280655   -1.775886    2.362918
H      9.910687   -1.729693    1.658852
H     -8.159631   -2.131548   -1.288697
H     -9.839330   -1.787373   -2.086360
H    -10.992588    0.444743    0.073290
H    -10.071412    1.490807   -1.057365
H    -10.993192    0.098455   -1.676576
H      0.734877   -1.280037   -0.741277
H      1.456759   -0.143520    0.423189
H     -1.170149    0.501582   -1.029846
H     -0.337040    1.365802    0.252986
H      0.962324    0.534125   -2.582808
H     -0.636443   -0.425055    1.950286
H      2.923512    1.445559   -3.535623
H      2.700483    2.927272   -2.589217
H     -2.489661   -2.926286    1.860104
H     -2.528110   -1.435551    2.912604
H      8.870765    0.540374   -1.794253
H      8.605821   -1.086661   -1.144077
H     -7.655574    1.629203   -1.130239
H     -8.053675    2.203959    0.545198
H      6.640893   -1.234467   -2.237254
H      6.814982    0.379879   -2.940344
H     -5.496633    1.305479   -0.552648
H     -5.825382    2.201460    1.012352
H      5.181240    1.538427   -3.307798
H      4.940245    3.153003   -2.622821
H     -4.798436   -1.869061    2.683816
H     -4.628348   -2.664035    1.101234
H      2.565960    1.620646    0.626936
H      3.466308    0.135511    0.257365
H     -2.424039   -0.970960   -1.390477
H     -3.233492   -2.308973   -0.588986
H      7.817029    1.536594    0.035232
H     -8.593067    0.056751    1.304859
H      4.852007   -0.435265   -1.124538
H     -6.314301    0.122203    2.142055
H      6.193130    2.315445   -0.947243
H     -3.903251    0.282612    1.526056
H      5.901496    0.582879    1.129301
H     -6.546270   -1.077235   -0.644584
H      5.503287   -1.657094    1.068847
H     -7.922400   -1.760600    1.799367
