42

C     -1.845468   -0.491506    2.279490
C     -1.643168   -1.941334   -1.247120
C      3.755165    0.993541    0.564684
C      3.161102   -1.185116    1.493038
C     -3.302779    1.092321   -0.873071
C     -3.116947    0.540795    0.498391
C     -2.569764    0.295231   -1.914906
C      1.119050    1.403205   -0.406615
C     -0.394782    1.493157   -0.333828
C      0.363842   -0.700987    0.304406
C     -1.940352    0.032118    0.908082
C     -1.388423   -0.459006   -1.391641
C      1.404593    0.359926    0.659900
C      2.805233   -0.170078    0.446628
C     -0.865123    0.061219   -0.086994
O      2.903208   -0.698371   -0.830290
H     -2.458300    0.179223    2.937195
H     -2.268250   -1.507026    2.397575
H     -0.823619   -0.469800    2.694730
H     -0.984942   -2.549909   -1.905876
H     -2.679905   -2.159822   -1.556149
H     -1.426551   -2.302614   -0.206217
H      4.588183    0.777877    1.269118
H      4.208977    1.262759   -0.417056
H      3.264507    1.912768    0.945828
H      3.169527   -0.675212    2.485492
H      2.490057   -2.044266    1.533204
H      4.183854   -1.564914    1.265563
H     -4.386353    1.007268   -1.100847
H     -3.074403    2.183807   -0.916817
H     -3.957025    0.540225    1.215064
H     -3.252651   -0.453352   -2.393689
H     -2.278313    0.997361   -2.724087
H      1.593290    2.365666   -0.199190
H      1.444704    0.953576   -1.383355
H     -0.645208    2.157107    0.505347
H     -0.729785    1.870612   -1.322333
H      0.237379   -1.352006    1.176740
H      0.770301   -1.312117   -0.528265
H     -0.557492   -0.345030   -2.143881
H      1.267257    0.762937    1.664960
H      3.859375   -0.860231   -1.036407
