40

C     -2.563913   -1.419283   -1.216152
C     -1.910340   -1.445329    1.091332
C      3.259168   -2.462127    0.966133
C     -1.226381    2.409722    0.834606
C     -0.473144    2.111669   -1.533925
C     -0.872550    0.694648   -1.892207
C      1.460382   -0.923883    1.664292
C      0.741151    0.359320    1.452827
C      1.683299    0.590151   -0.758318
C     -1.852738   -0.606476   -0.123462
C      2.459051   -1.196073    0.849378
C     -0.112403    2.052085   -0.075825
C     -0.584789   -0.170953   -0.657620
C      2.750289   -0.205078   -0.169557
C      0.388856    0.628964    0.050431
O      3.941436   -0.035633   -0.545394
H     -1.801490   -1.872442   -1.866483
H     -3.241901   -0.798199   -1.814750
H     -3.183174   -2.231985   -0.786931
H     -1.099101   -2.193072    1.179727
H     -2.851375   -2.080836    1.090092
H     -2.049557   -0.860741    2.048501
H      3.000302   -3.179029    0.188190
H      3.202637   -2.853754    1.998815
H      4.313650   -2.159717    0.801627
H     -0.997028    3.395681    1.336943
H     -2.121646    2.636521    0.204324
H     -1.455704    1.691881    1.633881
H      0.349351    2.496169   -2.174059
H     -1.308892    2.834335   -1.636077
H     -0.332750    0.369650   -2.780315
H     -1.939672    0.730869   -2.136283
H      1.220733   -1.638798    2.432208
H     -0.025359    0.412162    2.215101
H      1.488113    1.158117    1.758418
H      1.455443    0.242040   -1.809494
H      2.090908    1.616457   -0.918644
H     -2.533131    0.278179    0.039548
H      0.784591    2.702644    0.144374
H     -0.052323   -1.077857   -1.085253
