80

C      8.289401    2.351557   -0.761661
C     10.461108    1.409723   -1.048339
C    -10.249580    1.844215    0.633961
C     -8.177772    1.944959    1.895921
C      0.258566   -0.121213    1.474510
C     -0.850663    0.161449    0.444140
C      1.119797   -1.169545    0.903702
C     -1.619836   -1.041999    0.187153
C      3.209662   -2.181304    0.081871
C     -3.704395   -2.364372    0.198669
C      8.694346   -1.097857   -0.323238
C     -7.078899    2.048132   -0.955052
C      7.268299   -1.346274   -0.761397
C     -6.370014    1.137420   -1.965379
C      4.370055   -1.478127   -0.640216
C     -5.142524   -1.842800    0.085333
C      3.097313    0.208374    0.993762
C     -3.614289    0.007915    1.056732
C      9.054038    1.349643   -0.437587
C     -8.948347    1.665579    0.658117
C      2.411746   -1.041145    0.674382
C     -2.895382   -1.110457    0.466193
C      8.691108    0.239951    0.410779
C     -8.246264    1.186302   -0.541338
C      6.430114   -0.224215   -0.184555
C     -6.393258   -0.191141   -1.244628
C      5.144288   -0.781485    0.433294
C     -5.056601   -0.515646   -0.631611
C      7.297309    0.287820    0.935887
C     -7.525135   -0.141969   -0.275301
O      6.893733    1.488940    1.469467
O     -8.450896   -1.143423   -0.633079
O      4.454603    0.176616    1.106271
O     -4.495059    0.500781    0.093857
H      8.646454    3.173021   -1.428169
H      7.283278    2.491512   -0.438791
H     10.300450    1.504791   -2.137477
H     10.983232    0.448668   -0.871778
H     10.957158    2.269483   -0.590715
H    -10.759983    2.193034    1.510711
H    -10.807620    1.642673   -0.259161
H     -7.301066    2.591879    1.723198
H     -8.842380    2.397298    2.679748
H     -7.893820    0.939666    2.321890
H     -0.213150   -0.428233    2.432944
H      0.751226    0.830640    1.647699
H     -0.245968    0.358742   -0.504939
H     -1.369334    1.090762    0.623461
H      0.692432   -2.142987    0.639152
H     -1.107291   -1.917266   -0.258691
H      2.645093   -2.715337   -0.692723
H      3.635626   -2.821174    0.856746
H     -3.615359   -2.973325    1.102739
H     -3.383749   -2.853267   -0.727200
H      8.962345   -1.878605    0.446554
H      9.421968   -1.135063   -1.137335
H     -7.382882    2.996492   -1.408715
H     -6.393484    2.168550   -0.100595
H      6.905064   -2.339379   -0.425871
H      7.249861   -1.355208   -1.879348
H     -7.005119    1.090503   -2.876680
H     -5.348662    1.499386   -2.168095
H      3.983331   -0.696855   -1.329707
H      5.001630   -2.227610   -1.125133
H     -5.740233   -2.512958   -0.592041
H     -5.636258   -1.781775    1.063661
H      2.712421    0.618705    1.979609
H      2.849183    1.037359    0.268602
H     -3.059569    0.761545    1.595726
H     -4.306947   -0.445313    1.840251
H      9.377607    0.160789    1.308917
H     -8.929039    1.106416   -1.399930
H      6.195164    0.517584   -0.962510
H     -6.566594   -0.961854   -2.051717
H      5.509883   -1.588950    1.130854
H     -4.361582   -0.698137   -1.504472
H      7.189671   -0.525894    1.749527
H     -7.242842   -0.240180    0.771620
H      6.318314    1.382685    2.265695
H     -8.385029   -1.249216   -1.622053
