42

C     -1.237106    2.388985    1.037750
C     -1.193115   -0.556475   -2.302685
C      3.858746   -0.223976    0.910073
C      2.930889   -0.360702   -1.344913
C     -3.570433   -0.617973    0.585925
C     -3.059982    0.739142    0.923664
C     -3.088641   -0.866120   -0.824477
C      1.035974   -1.222793    0.875339
C     -0.426438   -0.947623    1.286473
C      0.362788    0.591914   -0.436685
C     -1.779555    1.028367    0.708903
C     -1.594209   -0.891332   -0.874010
C      1.419411    0.219681    0.563626
C      2.812573    0.306938   -0.012678
C     -0.913833   -0.037549    0.143884
O      3.075718    1.672450   -0.204640
H     -1.141705    2.940857    0.089387
H     -2.009953    2.911776    1.642898
H     -0.326110    2.392491    1.614412
H     -1.057732    0.516397   -2.447954
H     -2.055416   -0.833601   -2.981214
H     -0.363810   -1.201015   -2.643955
H      3.636147   -0.052545    1.989007
H      4.801929    0.332746    0.707541
H      4.105292   -1.296642    0.703036
H      4.033315   -0.438078   -1.571190
H      2.471358    0.253017   -2.147273
H      2.566826   -1.409174   -1.356468
H     -3.260484   -1.398871    1.283615
H     -4.710029   -0.539027    0.581280
H     -3.687564    1.525592    1.345358
H     -3.519860   -1.793698   -1.254272
H     -3.404508    0.036927   -1.410813
H      0.985264   -1.836670   -0.024748
H      1.610787   -1.639132    1.706184
H     -0.355484   -0.367645    2.228561
H     -0.981224   -1.881102    1.357145
H      0.271334    1.671848   -0.592039
H      0.590402    0.041399   -1.377707
H     -1.296223   -1.965627   -0.718871
H      1.345241    0.748066    1.526155
H      3.119421    2.058778    0.716377
