25

C      2.378032    1.138642   -0.337611
C     -3.371361    0.516226   -0.394859
C     -3.140710   -0.721077    0.180489
C     -2.338989    1.429322   -0.366607
C     -1.941969   -1.038667    0.757219
C     -1.114400    1.104205    0.222870
C      0.396676   -0.422538    1.398415
C      1.807058   -0.209508   -0.643575
C     -0.895662   -0.131274    0.792907
C      1.422105   -1.029546    0.540082
Br     3.045870   -1.254608    1.612360
O      2.752095   -0.898242   -1.430268
H      2.229873    1.867240   -1.161859
H      2.033950    1.540529    0.633851
H      3.496688    1.011302   -0.266509
H     -4.339831    0.732234   -0.844826
H     -3.914725   -1.462605    0.181820
H     -2.517510    2.398744   -0.816564
H     -1.729812   -2.002128    1.217500
H     -0.355008    1.876552    0.206233
H      0.207544   -1.108324    2.278106
H      0.786993    0.512024    1.851595
H      0.890418   -0.066748   -1.257278
H      1.189925   -2.048964    0.170740
H      3.022751   -1.732791   -0.982687
