48

C      4.376924    0.859377   -0.204095
C      3.803529   -0.754907   -1.895364
C     -2.530181   -0.275296   -2.043102
C      1.945323    0.799316    1.161026
C      1.595987    2.226689    0.719610
C      2.011710   -1.557144    0.456899
C     -0.682341    1.729776   -0.236797
C     -0.401490   -2.554412    0.148858
C     -3.133099    1.203368   -0.112326
C     -3.777667   -1.232807   -0.188449
C      3.457650    0.021808   -0.662571
C      2.157123   -0.127394    0.019939
C      0.140220    2.408910    0.502187
C      0.702394   -1.935616    0.975199
C     -1.984093    1.836518    0.549188
C     -2.904625   -2.419618    0.045847
C     -1.658801   -1.860724    0.559970
C     -0.686886    3.474188    1.163106
C     -2.711408   -0.204392   -0.546807
O      0.422403   -1.761976    2.159679
O     -3.176332   -3.568670   -0.148262
O     -0.291941    4.362853    1.964004
O     -2.000285    3.245809    0.677143
O     -1.589784   -0.555734    0.147752
H      5.347913    0.981416   -0.701530
H      4.168853    1.434598    0.677502
H      3.887856   -0.052163   -2.770706
H      4.817333   -1.180510   -1.749917
H      3.069151   -1.524692   -2.133938
H     -3.324108   -0.907567   -2.538942
H     -2.665095    0.735044   -2.523292
H     -1.571644   -0.744745   -2.344392
H      0.993886    0.447832    1.669668
H      2.728212    0.756897    1.914602
H      2.225797    2.552273   -0.145681
H      1.980580    2.850207    1.559118
H      2.283490   -2.257848   -0.369938
H      2.778646   -1.737617    1.258301
H     -0.738350    1.169198   -1.163131
H     -0.430091   -3.653753    0.282223
H     -0.171926   -2.272859   -0.900921
H     -3.541166    1.767905   -0.978025
H     -3.942165    1.072493    0.603543
H     -4.242219   -0.978081    0.794498
H     -4.506082   -1.382675   -0.990033
H      1.334654    0.043765   -0.735185
H     -1.870707    1.412564    1.563363
H     -1.697149   -1.891601    1.679361
