29

C      3.315886   -0.600083    0.298437
C     -2.563424   -0.185463   -1.119906
C     -1.582835   -0.874568    0.991322
C      1.485065    0.798310    0.774653
C     -0.322852   -1.078317   -1.164662
C      1.886349   -0.278538    0.149230
C      0.177417    1.457104    0.884818
C      1.045916   -1.157454   -0.660844
C     -0.756040    1.156557   -0.238299
C     -1.244361   -0.236714   -0.332969
O     -0.342338    1.187816    2.137263
O      1.655909   -2.222630   -0.992326
O     -0.115233    1.489314   -1.431959
H      3.606366   -1.508100   -0.264710
H      3.930840    0.229934   -0.133649
H      3.597123   -0.696435    1.366255
H     -2.767485   -1.215050   -1.501979
H     -2.452727    0.553638   -1.936069
H     -3.361728    0.062701   -0.406664
H     -2.222370   -1.765884    0.812210
H     -0.671716   -1.263773    1.511093
H     -2.159237   -0.183187    1.606489
H      2.277364    1.313214    1.326187
H     -0.727004   -2.110558   -1.287535
H     -0.344138   -0.637456   -2.204661
H      0.369580    2.558226    0.854181
H     -1.627137    1.851725   -0.149931
H     -0.953142    1.893114    2.432567
H      0.865954    1.462557   -1.318541
