48

C     -4.917820   -0.600538    0.068163
C     -3.428664    0.561388    1.557303
C      3.808558    0.165013   -0.804941
C     -2.092104    0.441906   -1.501968
C     -1.804372    1.779920   -0.917878
C     -1.588304   -1.452643    0.099873
C      0.327332    1.548861    0.465819
C      0.690512   -2.555287   -0.473255
C      2.801301    1.508010    0.952495
C      3.425232   -0.888381    1.352622
C     -3.672166   -0.227704    0.315595
C     -2.623179   -0.612031   -0.631571
C     -0.355414    1.872307   -0.569648
C     -0.652099   -2.099610   -0.840232
C      1.641360    2.317623    0.409367
C      2.706061   -2.125902    0.883271
C      1.383648   -1.606025    0.439018
C      0.625005    2.447318   -1.540816
C      2.840123    0.118106    0.384814
O     -1.026208   -2.261100   -1.989150
O      3.111409   -3.255249    0.874129
O      0.453349    2.903153   -2.691906
O      1.903275    2.426930   -0.980173
O      1.657206   -0.372842   -0.075630
H     -5.720481   -0.332278    0.755974
H     -5.138460   -1.172138   -0.818050
H     -2.350429    0.691845    1.780393
H     -4.021648    1.488275    1.610664
H     -3.813065   -0.072665    2.411746
H      4.637928    0.842943   -0.517571
H      3.290082    0.529435   -1.706192
H      4.208735   -0.850462   -0.993313
H     -2.750524    0.505325   -2.421132
H     -1.119478    0.062619   -1.938472
H     -2.086594    2.510364   -1.742451
H     -2.509651    2.119396   -0.135063
H     -2.193738   -2.303392    0.542095
H     -1.149276   -0.951322    0.952033
H      0.281476    0.909824    1.358218
H      1.319982   -2.720375   -1.370917
H      0.619666   -3.536128    0.037513
H      2.650522    1.393391    2.065931
H      3.702309    2.088868    0.757940
H      3.148499   -0.602181    2.369169
H      4.518315   -1.011992    1.222126
H     -3.085420   -1.376611   -1.319408
H      1.586186    3.259728    0.944350
H      0.761022   -1.505692    1.369115
