27

C      3.062339    0.849012   -0.142514
C     -2.029245    1.100868    1.023576
C     -2.644084    1.077069   -0.305676
C      1.300819   -0.386414   -1.278553
C      1.070335   -0.019005    1.166564
C      0.030110   -1.130302   -1.375713
C      0.044244   -1.100001    1.048099
C      1.764980    0.106775   -0.157176
C     -1.188082    0.692658   -0.152762
C     -0.816270   -0.764767   -0.174533
O     -1.958137   -1.580570   -0.171443
H      3.834995    0.287953    0.424738
H      3.409666    1.061729   -1.156328
H      2.887853    1.796191    0.396056
H     -2.317009    0.336032    1.768478
H     -1.784722    2.080342    1.508029
H     -3.370005    0.256666   -0.511021
H     -2.865945    2.055930   -0.780804
H      1.906848   -0.225094   -2.180732
H      0.612096    0.952149    1.443259
H      1.802989   -0.316825    1.947770
H      0.246349   -2.211997   -1.303748
H     -0.549373   -0.886116   -2.289159
H      0.583388   -2.056345    0.860076
H     -0.573050   -1.242468    1.936958
H     -0.457889    1.399741   -0.552396
H     -2.003197   -2.133211   -0.991044
