56

C      5.518596    0.115103   -1.414819
C      6.769342   -0.451082   -1.187911
C      5.008809   -0.224509    0.904138
C      1.690560   -1.007347   -0.329000
C      0.364575    2.291991    0.776076
C     -4.513170   -1.846949   -1.379632
C      4.631863    0.216652   -0.327507
C      0.664978    0.001236    0.088624
C      7.155462   -0.901962    0.064204
C      6.284855   -0.785944    1.098302
C     -0.995467    2.144328    0.727166
C      2.542594   -0.277075   -1.391279
C      1.208718    1.246350    0.462140
C     -4.511724   -0.351199   -1.144769
C     -1.534283    0.928809    0.360817
C     -0.687587   -0.156330    0.042673
C     -5.576862    0.091760   -0.179210
C     -5.081405    0.382791    1.187214
C     -3.590157   -0.051452    1.251240
C      3.352380    0.797655   -0.646306
C     -2.967495    0.858879    0.160993
O     -5.886848   -2.282921   -1.471135
O      8.439013   -1.452913    0.148790
O      6.616060   -1.201933    2.361986
O     -1.851558    3.216342    1.055113
O      1.656909    0.304461   -2.280404
O     -1.244093   -1.344290   -0.299965
O     -6.250409    1.219115   -0.645836
O     -5.776195   -0.137655    2.235861
O     -3.048368    0.323631    2.497412
O      2.602904    1.291917    0.474204
O     -3.263663    0.116024   -1.022817
H      5.257261    0.452228   -2.393837
H      7.443774   -0.511352   -2.037506
H      4.330927   -0.158520    1.761934
H      2.393765   -1.180141    0.533454
H      1.265342   -1.926138   -0.678870
H      0.796150    3.231591    1.061752
H     -4.051811   -2.467791   -0.622475
H     -4.098210   -2.089154   -2.395686
H      3.250796   -0.963574   -1.922078
H     -4.897207    0.055321   -2.156585
H     -6.319499   -0.719715   -0.099757
H     -5.006577    1.514271    1.324773
H     -3.468607   -1.100971    1.034020
H      3.507682    1.653245   -1.368456
H     -3.423200    1.837565    0.056455
H     -6.093407   -2.946898   -0.738597
H      8.790289   -1.822158    1.041446
H      7.520774   -1.586361    2.542258
H     -1.443543    4.109708    1.338080
H      1.623073    1.306225   -2.168379
H     -0.710754   -2.133073   -0.544954
H     -5.730031    2.075984   -0.444519
H     -6.318569    0.610575    2.674606
H     -2.346754   -0.314353    2.723574
