56

C     -5.298237    1.515104    0.251163
C     -6.661725    1.631769    0.354452
C     -5.429800   -0.818163   -0.109327
C     -1.219462    0.957285   -1.330403
C     -0.401824   -1.746667    1.079931
C      5.079131    0.459826    2.706462
C     -4.644723    0.298859    0.017246
C     -0.499350   -0.037748   -0.498040
C     -7.428082    0.496252    0.222567
C     -6.819070   -0.711219   -0.005920
C      0.980618   -1.855194    0.993601
C     -2.668874    0.462000   -1.486647
C     -1.164904   -0.873243    0.371772
C      4.812430   -0.142422    1.316382
C      1.638332   -0.983345    0.092357
C      0.912842   -0.084587   -0.646541
C      5.285555    0.852114    0.278504
C      4.759113    0.564550   -1.089926
C      3.779800   -0.559954   -1.158996
C     -3.178258    0.329111   -0.062231
C      3.135685   -1.012259    0.066072
O      4.537291   -0.400811    3.654173
O     -8.811556    0.578057    0.321788
O     -7.566177   -1.856880   -0.138606
O      1.644233   -2.765253    1.752904
O     -3.415021    1.370971   -2.221068
O      1.511126    0.784374   -1.527246
O      6.674581    0.875827    0.351246
O      4.361358    1.729225   -1.724189
O      4.530599   -1.722826   -1.655473
O     -2.543369   -0.803003    0.496772
O      3.461717   -0.246273    1.205821
H     -4.725204    2.436620    0.359718
H     -7.169750    2.579627    0.531630
H     -4.925402   -1.763892   -0.286443
H     -1.227718    1.952845   -0.814048
H     -0.751126    1.036467   -2.321488
H     -0.943897   -2.409834    1.771019
H      4.515289    1.436864    2.674555
H      6.134316    0.686967    2.858684
H     -2.621347   -0.541249   -1.961306
H      5.295562   -1.120109    1.186359
H      4.931004    1.861503    0.620577
H      5.672549    0.238721   -1.689606
H      3.113942   -0.403084   -2.021686
H     -2.814070    1.271712    0.447587
H      3.460793   -2.063558    0.310670
H      4.511204   -1.328584    3.364228
H     -9.252729    1.476112    0.484719
H     -8.578268   -1.799519   -0.061678
H      2.617359   -2.905424    1.759743
H     -4.014916    0.837096   -2.811729
H      1.062535    1.466078   -2.073831
H      6.995353   -0.006381    0.032629
H      3.976453    2.396768   -1.082646
H      5.384083   -1.621225   -1.134224
