54

C      4.258039    1.393588    1.800225
C      4.381734   -1.253755   -0.726465
C     -0.619821   -0.095160   -2.217223
C     -3.343606   -0.584606    1.626636
C      4.653509    0.403084    1.013200
C      0.467146   -1.862960    0.525575
C     -0.926359   -1.887880    0.037502
C      1.780766    0.696108   -1.367203
C     -2.250212    2.070512    0.167006
C      3.131793    0.916860   -0.778399
C     -1.135229    1.815994   -0.809626
C      2.616030   -0.878064    0.904307
C     -3.608624   -1.401586   -0.625744
C      1.230993   -0.821479    0.385826
C      0.791689    0.416568   -0.257899
C     -1.423832   -0.439815    0.159206
C     -3.344733    1.045287   -0.154548
C      3.637901   -0.188524    0.083947
C     -0.640349    0.382102   -0.787979
C     -2.890589   -0.333859    0.171920
O     -5.003108   -1.273239   -0.488905
O     -3.747430    1.255057   -1.447347
H      3.244412    1.783619    1.795442
H      4.938962    1.874111    2.502179
H      5.090096   -1.733040   -0.009155
H      4.968508   -0.800555   -1.536997
H      3.672108   -2.017806   -1.046715
H     -0.157576   -1.076758   -2.362699
H     -1.631125   -0.000762   -2.655470
H     -0.035277    0.690673   -2.786213
H     -4.346991   -0.159218    1.800812
H     -3.350530   -1.681507    1.842194
H     -2.655387   -0.123084    2.342953
H      5.673675    0.071091    1.074993
H      0.865302   -2.763178    1.024546
H     -1.592153   -2.464825    0.735023
H     -1.018614   -2.281148   -0.977359
H      1.746960   -0.148118   -2.079386
H      1.533101    1.627478   -1.921525
H     -2.678197    3.050540   -0.046978
H     -1.930127    2.003820    1.221511
H      3.855310    1.034845   -1.635064
H      3.129800    1.890256   -0.253373
H     -0.306640    2.536311   -0.640247
H     -1.546768    2.098763   -1.823292
H      2.568641   -0.409841    1.931598
H      2.900895   -1.935014    1.090693
H     -3.374417   -2.420982   -0.255747
H     -3.304680   -1.381161   -1.686993
H      0.899122    1.286179    0.457975
H     -1.056084   -0.130334    1.188206
H     -4.211598    1.365703    0.497800
H     -5.374433   -0.998577   -1.384645
H     -4.532002    1.838288   -1.537014
