121

C     -2.079787   -0.201606   -4.840873
C     -0.615615   -2.102915   -5.104686
C     -6.261451   -1.762622    2.878305
C     -6.729431   -0.024490    4.404055
C     -3.429826    1.929543   -1.360753
C     -3.437523   -0.554772    1.508283
C     -7.397073   -1.094363    0.262506
C      0.737235   -0.501745   -2.919870
C     -5.617806    1.612511    2.279596
C     -4.370482    1.683929    1.513692
C      0.719978    0.915180   -2.306321
C     -1.856083    1.607485    0.419265
C     -0.544592    1.737036   -0.298930
C     -3.662112   -0.878097   -1.858918
C     -7.192483    1.119857   -1.760635
C      8.540273    2.072206    1.798673
C      5.628338   -0.877041   -0.259089
C     -1.215677   -0.994896   -4.290753
C     -6.501206   -0.487237    2.947617
C     -0.773897   -0.900929   -2.891089
C     -6.621461    0.537237    1.885427
C     -2.508490   -0.296833   -1.125439
C     -4.900072   -1.100169   -1.002269
C      9.093432    1.412814    0.574451
C      4.699523   -1.399966    0.841178
C     -7.391787    1.204432   -0.293868
C     -6.868669   -0.188826   -2.324310
C     -1.381667    0.105356   -2.022154
C      9.895363    0.197966    0.977094
C      4.795896   -0.549412    2.077607
C     10.213375   -0.620736   -0.246505
C      3.717241   -0.878264    3.078847
C      8.913247   -1.083333   -0.852330
C      2.388017   -0.815180    2.393805
C     -5.207667    0.118189   -0.158913
C      7.784003   -0.101550   -0.619772
C      2.344283   -1.292953    0.995199
C      0.440785   -0.475221   -0.376512
C     -2.938212    0.933919   -0.350131
C     -4.046482    0.522805    0.659118
C     -6.543875    0.129000    0.473703
C     -0.237947    0.566661   -1.146903
O      8.006872    3.331842    1.461360
O     -6.899745    2.426428    0.137163
O     -7.518397   -0.551008   -3.370112
O     11.110557    0.571069    1.559550
O      6.028332   -0.722345    2.726384
O     10.994524   -1.701619    0.157240
O      3.720124    0.092610    4.084721
O      9.155123   -1.291255   -2.219015
O      1.517439   -1.612293    3.173143
O     -0.034161   -1.605439   -0.221108
O      6.877633   -0.579718    0.323933
O     -5.966263   -1.192854   -1.969444
O      8.185889    1.193546   -0.423897
O      3.474812   -1.721793    0.401021
O      1.689504   -0.251333    0.239329
H     -2.594384    0.640507   -4.378717
H     -2.339834   -0.386094   -5.910041
H      0.193536   -2.627129   -4.593384
H     -1.366602   -2.854725   -5.408531
H     -0.173943   -1.672331   -6.050297
H     -6.237626   -2.402380    3.787277
H     -6.041863   -2.313945    1.982994
H     -5.736802   -0.121294    4.884278
H     -7.424551   -0.745166    4.860547
H     -7.120739    0.995106    4.417222
H     -4.173636    2.654685   -0.997108
H     -2.555120    2.588935   -1.664941
H     -3.801654    1.528495   -2.298183
H     -2.333882   -0.620711    1.473114
H     -3.643635   -0.406902    2.610872
H     -3.871308   -1.576315    1.295576
H     -7.993131   -1.364816    1.190880
H     -8.276489   -0.898305   -0.451210
H     -6.882805   -1.993725   -0.060196
H      1.257824   -1.157202   -2.216378
H      1.128334   -0.516630   -3.931914
H     -5.400746    1.521251    3.392714
H     -6.090332    2.636527    2.262869
H     -3.524269    1.774323    2.281818
H     -4.312823    2.668018    0.995102
H      1.680313    1.224778   -1.918400
H      0.210443    1.600647   -2.993676
H     -1.732992    1.265773    1.471166
H     -2.200681    2.684565    0.552540
H      0.243045    1.799374    0.500081
H     -0.445615    2.714736   -0.851968
H     -3.345735   -1.914150   -2.189968
H     -3.958725   -0.375807   -2.794657
H     -8.191225    1.418723   -2.213375
H     -6.521446    1.937025   -2.169798
H      9.373469    2.277906    2.501328
H      7.817010    1.453303    2.343811
H      5.813811   -1.708556   -0.991498
H      5.205495   -0.045660   -0.821542
H     -0.842511   -1.905495   -2.380854
H     -7.624794    1.026743    2.094643
H     -2.127133   -1.095394   -0.463355
H     -4.770368   -2.026828   -0.460802
H      9.854793    2.135067    0.149647
H      5.197734   -2.379498    1.137075
H     -8.451495    1.122473    0.011674
H     -1.660350    0.986439   -2.664699
H      9.370799   -0.430349    1.695468
H      4.749212    0.519021    1.783111
H     10.820595    0.001175   -0.933917
H      3.902072   -1.847737    3.563351
H      8.662941   -2.064402   -0.368658
H      1.951474    0.224345    2.526334
H     -5.230664    0.927277   -0.973494
H      7.217329   -0.094353   -1.602299
H      1.631618   -2.181972    0.953519
H      7.890474    3.369754    0.475668
H     -7.488372    3.187739   -0.053326
H     11.852808   -0.020767    1.293531
H      6.113823    0.082739    3.317808
H     10.615872   -2.561184   -0.175585
H      3.804422    0.990428    3.629325
H      8.592215   -2.026982   -2.567600
H      1.414966   -1.229880    4.088281
