62

C      0.653703    2.990669   -0.303499
C     -5.560812    2.030623    0.103530
C     -3.076663   -1.117852    1.593483
C     -3.613486   -1.221588   -0.773780
C      0.184881   -1.116533    1.576250
C     -0.520112   -2.973568   -0.220875
C      3.116510    0.299839    0.734213
C      5.509863    1.008791    0.554617
C     -1.929481   -2.738303    0.097831
C      0.305191   -1.826065   -0.709405
C      2.217152    0.412389   -0.431063
C      6.717730    0.492218   -0.118144
C     -0.946034    1.774054    1.157635
C      0.441460    1.781453    0.584080
C     -4.116655    1.931467   -0.213830
C      4.530564    0.170821    0.263333
C     -1.855033    1.103533    0.160559
C     -1.455198   -0.301691   -0.165002
C      5.043694   -0.897689   -0.587723
C     -2.448925   -1.349569    0.231896
C     -0.015936   -0.638100    0.205101
C      0.768503    0.555102   -0.216818
N      6.288900   -0.708741   -0.800932
O     -3.690004    2.581550   -1.187658
O      4.240009   -1.935564   -1.059885
O      0.261916    0.858770   -1.520763
O     -3.208103    1.184624    0.473172
H     -0.013569    3.828195    0.021678
H      1.686901    3.380927   -0.255399
H      0.431280    2.781610   -1.361438
H     -6.147629    1.532487   -0.667079
H     -5.798541    3.115066    0.192200
H     -5.721645    1.589008    1.124547
H     -3.034357   -2.099673    2.152290
H     -2.667097   -0.296572    2.167592
H     -4.186490   -0.918928    1.532181
H     -3.387561   -0.516647   -1.584010
H     -4.551476   -0.930488   -0.298139
H     -3.819809   -2.200069   -1.277865
H     -0.695558   -1.605321    2.017721
H      0.564901   -0.385906    2.310090
H      0.965716   -1.936091    1.577927
H     -0.405711   -3.764166   -1.029903
H      0.036749   -3.470795    0.632726
H      3.088770    1.105918    1.456564
H      2.925318   -0.641330    1.323441
H      5.493201    1.907550    1.157525
H     -2.148313   -3.265822    1.079974
H     -2.558275   -3.361808   -0.613721
H      1.369468   -2.115388   -0.626133
H     -0.007235   -1.596741   -1.745560
H      2.549218    1.322280   -1.018290
H      2.448749   -0.435573   -1.123219
H      7.090790    1.262458   -0.815473
H      7.501155    0.185715    0.629567
H     -1.274146    2.856794    1.183669
H     -0.998116    1.418946    2.174124
H      1.141186    1.921228    1.455201
H     -1.736829    1.775866   -0.751449
H     -1.447649   -0.349026   -1.303567
H      4.691292   -2.772892   -1.438263
H      0.771675    0.328548   -2.198894
