42

C      3.887984    2.708266   -1.580549
C      3.424424    0.012760   -0.714566
C     -0.405799   -2.538756    2.182416
C      0.423481   -0.245821    1.494611
C     -2.605739    3.597715    0.315788
C      2.664581    2.258457   -1.614817
C     -2.689421   -1.977046   -0.749624
C     -2.002616   -2.718424    0.340464
C     -2.626511   -0.525965   -0.457219
C      1.117615    0.483924   -1.247606
C      0.645306   -0.836139   -0.869726
C      2.363636    0.901765   -1.191805
C     -0.648869   -2.257421    0.702681
C     -1.499799   -0.016051    0.046772
C     -1.455274    1.414451    0.329244
C     -0.323987   -0.837096    0.319956
O     -0.484062    2.029505    0.798093
O     -2.588055    2.207912    0.063574
H      4.108130    3.742096   -1.903654
H      4.686231    2.073729   -1.243187
H      4.208793    0.556393   -0.103105
H      3.984104   -0.489455   -1.516898
H      2.991812   -0.714706    0.028306
H     -0.670111   -1.695079    2.821931
H     -1.094373   -3.395497    2.444629
H      0.609331   -2.960151    2.361340
H      1.058544   -1.022631    1.992974
H      1.155657    0.486353    1.082636
H     -0.205548    0.266236    2.222986
H     -3.048739    3.758064    1.321655
H     -3.186002    4.168054   -0.416769
H     -1.559701    3.974499    0.374973
H      1.887971    2.935503   -1.969860
H     -2.165622   -2.155002   -1.711415
H     -3.739913   -2.317432   -0.909816
H     -2.653462   -2.633918    1.259911
H     -1.998144   -3.800763    0.098944
H     -3.439738    0.147828   -0.627448
H      0.366955    1.190881   -1.622737
H      1.394654   -1.599574   -0.669094
H      0.026282   -1.263151   -1.726114
H      0.085993   -2.914316    0.171854
