110

C      0.253847   -0.672000    3.548131
C     -0.342993   -2.960443    3.429083
C      0.016951   -2.972814   -3.519599
C     -0.347191   -0.659647   -3.561896
C      5.802338    1.427798   -3.909422
C      5.456384   -0.933226   -3.764741
C     -4.350848    0.034362    4.522722
C     -6.219306   -1.057577    3.600468
C      0.081572   -0.662993    4.917576
C     -0.518959   -2.957597    4.815783
C      0.087180   -2.984488   -4.891767
C     -0.277754   -0.661905   -4.946694
C      6.382466    1.318286   -5.151917
C      6.038079   -1.044566   -5.011071
C     -4.638554   -0.500544    5.781004
C     -6.511897   -1.593150    4.849070
C      3.019085    2.509950   -0.873075
C      1.754396    2.187917   -2.840423
C     -3.585754    2.587766    0.959184
C     -1.800885    2.362817    2.474215
C      1.620465    4.259702   -1.648557
C     -2.164794    4.470617    1.421230
C      4.062469   -1.646389    0.980942
C     -4.124446   -1.666697   -0.881864
C      0.046860   -1.808224    2.786699
C     -0.205053   -1.796546   -2.797630
C      5.346988    0.337803   -3.223109
C     -5.123322   -0.230153    3.425691
C      2.639203    1.711062   -1.930617
C     -2.861681    1.808538    1.822007
C     -0.312033   -1.825606    5.565390
C     -0.059860   -1.823669   -5.626258
C      6.494401    0.052506   -5.697541
C     -5.724698   -1.320259    5.951385
C      2.521027    3.785609   -0.715669
C      1.243443    3.457500   -2.704508
C     -3.236669    3.935150    0.753573
C     -1.431640    3.696036    2.289574
C      2.841029   -1.993813    1.516880
C     -2.920467   -2.024069   -1.443242
C      4.096113   -0.878400   -0.198341
C     -4.138776   -0.860017    0.284726
C      0.215324   -1.824853    1.334148
C     -0.284693   -1.828329   -1.316100
C      3.254450    0.338051   -2.022168
C     -3.244916    0.404333    2.041546
C      1.648610   -1.615626    0.938073
C     -1.709277   -1.622882   -0.907170
C      2.928523   -0.481716   -0.805880
C     -2.966163   -0.451282    0.831964
C     -0.393685   -0.592423    0.637259
C      0.358972   -0.627624   -0.667331
C      1.727118   -0.869894   -0.210719
C     -1.765937   -0.843705    0.224066
C      4.736057    0.526324   -1.894450
C     -4.751918    0.347406    2.122504
O     -0.476576   -1.784185    6.941832
O      0.010939   -1.828983   -7.019311
O      7.069265   -0.147461   -6.951091
O     -6.036424   -1.868465    7.194640
O      2.915837    4.569952    0.352934
O      0.322538    3.962097   -3.645551
O     -3.952720    4.746972   -0.114137
O     -0.351578    4.263038    2.952441
O      2.828053   -2.750794    2.679789
O     -2.912720   -2.819254   -2.594435
O      5.166787   -0.396913   -0.940302
O     -5.192052   -0.375038    1.028226
H      0.571104    0.264442    3.101073
H     -0.531624   -3.903740    2.934730
H      0.130899   -3.875585   -2.953333
H     -0.526160    0.295928   -3.092587
H      5.734659    2.440668   -3.520216
H      5.091843   -1.768458   -3.206331
H     -3.467508    0.687762    4.528107
H     -6.828545   -1.271111    2.756424
H      0.242680    0.231960    5.528898
H     -0.826483   -3.866626    5.323737
H      0.259883   -3.906787   -5.428735
H     -0.399297    0.278731   -5.501336
H      6.746089    2.176725   -5.702618
H      6.117186   -2.056152   -5.424881
H     -4.024679   -0.289209    6.645469
H     -7.358932   -2.242076    5.017545
H      3.721591    2.177832   -0.114849
H      1.457536    1.567251   -3.674347
H     -4.440769    2.250879    0.394311
H     -1.203724    1.805442    3.163977
H      1.249373    5.249917   -1.504510
H     -1.856346    5.514450    1.292006
H      5.013550   -1.919670    1.397714
H     -5.083945   -1.965992   -1.278130
H     -0.223944   -2.738383    0.945812
H      0.144203   -2.780247   -0.989892
H      2.945190   -0.186501   -2.930814
H     -2.726544   -0.038845    2.920932
H     -0.216494    0.320562    1.214068
H      0.241883    0.303185   -1.250155
H      5.006582    1.564836   -1.550659
H     -5.188095    1.397838    2.144802
H     -0.755176   -2.568024    7.485584
H      0.175224   -2.716640   -7.476763
H      8.088531   -0.306765   -6.930406
H     -6.644613   -1.408039    7.868900
H      3.734227    5.155852    0.201486
H      0.769190    4.452660   -4.435440
H     -3.697994    4.811448   -1.073763
H      0.577254    4.226496    2.522412
H      3.667828   -3.054910    3.144258
H     -3.736160   -3.148480   -3.040646
