82

C      1.068816    1.272989    4.064050
C      6.042670   -1.454650   -0.288816
C     -2.655336   -3.355142   -3.101474
C      5.699661    0.000000    4.151577
C     -1.315419    2.845716   -0.490014
C      1.892075   -1.228824   -2.679723
C     -0.510338   -1.718084   -2.429564
C      2.009729    0.776018    1.481753
C      3.644828   -0.121634    0.081176
C      3.620466   -0.109313   -4.096268
C      2.104835    2.490758   -2.901452
C     -4.517538    1.150345    3.641747
C      0.559842   -0.922769   -2.108664
C      2.439042    0.549347    0.191445
C      2.422945    0.093979   -3.213116
C      2.537843    1.183230   -2.210250
C      2.743538    0.355007    2.603127
C      4.380935   -0.543659    1.178918
C     -1.771442   -1.435733   -1.937228
C     -4.603959    0.072463    2.576145
C      1.666879    1.006952   -0.977167
C      0.470147    0.182349   -1.297814
C     -6.070997   -0.070453    2.219043
C     -6.161952   -0.495552    0.784415
C     -4.921561   -1.300163    0.449431
C      3.936761   -0.309320    2.460137
C     -1.890276   -0.333562   -1.123932
C     -0.804693    0.459355   -0.808275
C     -3.654524   -0.520291    0.594878
O      4.700018   -0.712139   -3.520655
O      2.876934    2.808570   -3.984934
O     -3.203576    1.364836    4.036036
O     -6.735743   -0.913604    3.095989
O     -6.289492    0.627961   -0.006556
O     -4.897315   -2.390391    1.321812
O      2.289583    0.594940    3.876812
O      5.584701   -1.213286    1.016307
O     -2.874190   -2.236331   -2.253832
O      4.702160   -0.747553    3.530707
O     -0.993915    1.573010    0.024373
O     -3.852306    0.512002    1.493402
O     -3.147622   -0.034312   -0.621392
H      0.860006    1.392775    5.165209
H      1.058224    2.284404    3.633216
H      0.206917    0.689298    3.676887
H      7.060524   -1.862352   -0.330249
H      6.078239   -0.501122   -0.884811
H      5.368775   -2.193627   -0.783695
H     -3.589750   -3.901754   -3.302999
H     -1.916179   -4.000739   -2.568587
H     -2.223036   -3.040035   -4.082652
H      6.596236   -0.607807    4.373570
H      6.027401    0.795174    3.450040
H      5.324454    0.529698    5.065289
H     -1.514293    2.764769   -1.577219
H     -2.187822    3.235048    0.066686
H     -0.494758    3.587689   -0.338415
H      1.745934   -1.858700   -3.608760
H      2.559868   -1.762307   -2.014859
H     -0.425281   -2.599075   -3.078074
H      1.075311    1.303818    1.644556
H      4.008341   -0.303000   -0.920339
H      3.902398    0.815196   -4.595461
H      3.269590   -0.798095   -4.923199
H      1.050392    2.433979   -3.220912
H      2.158865    3.332733   -2.165022
H     -4.887735    2.101201    3.185621
H     -5.164438    0.941416    4.498217
H      1.601342    0.398887   -3.942793
H      3.598073    1.373338   -1.951964
H     -4.253181   -0.867579    3.007208
H      1.281937    2.015469   -0.718695
H     -6.579439    0.928553    2.315168
H     -7.027431   -1.179006    0.596520
H     -5.010077   -1.754501   -0.579775
H     -2.855091   -1.169122    1.037763
H      4.675221   -1.692837   -3.652000
H      2.380961    3.323054   -4.644259
H     -2.983067    2.315790    4.086134
H     -6.614811   -1.846773    2.807501
H     -6.684776    0.434783   -0.905829
H     -4.000060   -2.811709    1.358828
