29

C      3.851351    0.378616    0.078615
C     -2.748586    1.772086   -0.459051
C      2.372089    0.318084    0.421829
C     -1.571028   -1.415931    1.076580
C      1.654163   -0.379357   -0.680720
C     -2.340125   -0.623579    0.043438
C     -0.095357   -1.255216    0.783747
C     -1.770120    0.801732    0.114122
C      0.174217   -0.490234   -0.463271
N     -0.514177    0.748006   -0.556676
H      4.069377    1.267240   -0.544932
H      4.449441    0.469840    0.994275
H      4.146227   -0.510874   -0.530962
H     -2.631157    1.960739   -1.530179
H     -3.778049    1.378747   -0.237036
H     -2.714771    2.781437    0.041947
H      2.285212   -0.285756    1.351938
H      2.047086    1.346007    0.610204
H     -1.817305   -0.973956    2.062427
H     -1.884783   -2.495680    1.027025
H      1.906357    0.088922   -1.658560
H      2.076526   -1.424794   -0.723944
H     -2.208860   -1.066095   -0.954178
H     -3.418881   -0.558093    0.291564
H      0.337478   -2.273372    0.710574
H      0.369329   -0.737741    1.663172
H     -1.640511    1.016275    1.194545
H     -0.204452   -1.131603   -1.315371
H     -0.400692    1.294550   -1.390733
