43

C      3.377854   -1.196895    1.035931
C      3.168418    0.845187   -0.200644
C     -0.679033    3.926140   -0.060705
C     -2.552150   -1.589217   -1.133177
C     -2.286417    2.184444    0.138216
C     -2.385533    0.739358   -0.133945
C      0.788875   -2.015546    0.527158
C     -0.481972   -2.404951   -0.155855
C      0.310128    1.744188    0.090433
C      2.508930   -0.449743    0.008464
C     -0.892162    2.618697    0.054744
C      1.121482   -0.543921    0.471597
C     -1.243549   -0.085782    0.388677
C     -1.635078   -1.519292    0.081270
C      0.092134    0.305759   -0.201401
O     -2.412712   -1.951513    1.172350
O      0.102558    0.002688   -1.559383
H      4.439318   -0.986153    0.710502
H      3.255735   -0.720023    2.018904
H      3.270607   -2.266391    1.030751
H      2.988690    1.637502    0.522966
H      3.057350    1.177172   -1.277128
H      4.296655    0.693913   -0.146655
H      0.323537    4.368772   -0.131516
H     -1.492130    4.632593   -0.091431
H     -2.050813   -1.210245   -2.051821
H     -3.541794   -1.182321   -0.953333
H     -2.692845   -2.692774   -1.324184
H     -2.757637    2.512234    1.089545
H     -2.852669    2.746894   -0.662020
H     -2.555062    0.583000   -1.220564
H     -3.300443    0.350619    0.370613
H      0.767136   -2.407236    1.566167
H      1.569560   -2.657796    0.012259
H     -0.743020   -3.427542    0.193387
H     -0.301051   -2.518967   -1.263631
H      0.987694    2.191951   -0.664928
H      0.689749    1.826828    1.129507
H      2.586146   -1.028500   -0.960992
H      1.116810   -0.194698    1.551665
H     -1.187468    0.052845    1.482036
H     -2.642283   -2.895296    1.096345
H     -0.133546    0.804019   -2.075909
