59

C      0.630367   -0.110458    2.769252
C     -4.326942   -1.051460    1.284718
C     -4.701849    1.205358    0.465943
C     -1.376525   -1.877352    0.342802
C      6.851679    1.860429    0.657907
C      2.293472   -2.266551   -3.041508
C     -2.917313    0.108393   -1.973214
C     -0.957789    1.529975    2.058757
C     -2.170167    0.650543    2.015416
C     -3.992633   -0.488182   -1.133507
C     -1.526788   -0.318838   -1.568825
C      0.980208   -0.153466   -0.506306
C      5.225467    0.463070   -1.068579
C      0.306501    0.732444    1.568824
C      2.374260    0.102919   -0.576873
C      0.019518    0.062734    0.344903
C      4.345761   -0.125782   -2.045382
C      4.738710    0.848887    0.079858
C     -2.417893    0.406397    0.541363
C      3.284418    0.676828    0.360598
C      2.947015   -0.281821   -1.749176
C     -3.828123   -0.039121    0.279845
C     -1.375766   -0.445717   -0.043982
O      4.842649   -0.487832   -3.141416
O      2.998812    1.093001    1.503594
O      5.573583    1.429599    1.064800
O      2.205422   -0.875721   -2.790631
H     -0.244137   -0.452114    3.355184
H      1.260022    0.430870    3.510632
H      1.122318   -1.030704    2.394281
H     -4.993334   -0.598605    2.054010
H     -4.978609   -1.795636    0.747750
H     -3.513964   -1.552399    1.841853
H     -5.111389    1.244799    1.499832
H     -5.561280    1.194407   -0.224663
H     -4.103776    2.135290    0.335051
H     -0.483950   -2.353950   -0.161947
H     -1.200074   -2.033221    1.423954
H     -2.239946   -2.464393    0.025118
H      7.424693    2.295995    1.485764
H      6.805696    2.515886   -0.239626
H      7.446900    0.957843    0.330246
H      3.382000   -2.454409   -3.278716
H      1.757190   -2.532762   -3.974436
H      1.943214   -2.825066   -2.173158
H     -3.055978   -0.213261   -3.034810
H     -3.050772    1.209624   -1.971230
H     -1.115471    2.376905    1.362674
H     -0.767746    1.885484    3.061551
H     -3.029112    1.232209    2.425345
H     -2.062992   -0.306076    2.547166
H     -4.969467   -0.100780   -1.551489
H     -4.077618   -1.597477   -1.247303
H     -1.247206   -1.245191   -2.067639
H     -0.893602    0.570712   -1.830076
H      0.591262   -0.715589   -1.439767
H      6.274921    0.579976   -1.293639
H      0.998407    1.575263    1.466993
H     -2.332255    1.418093    0.051575
