41

C      3.395292   -1.449122    1.007699
C     -2.757506   -1.835381   -2.052694
C     -1.378820   -1.891944   -2.083714
C     -3.342664   -1.037729   -1.111256
C      0.230214    2.965553   -0.690760
C      0.766318    1.634611   -1.166228
C     -0.069978   -0.472260    1.885038
C      1.396759   -0.737718    2.062207
C      0.857448   -1.320548   -1.332675
C     -0.896033    1.701609    1.199881
C     -0.607083   -1.159251   -1.184042
C     -0.975420    2.707893    0.117595
C      0.964101    0.746159    0.025772
C      1.649358   -0.541254   -0.318166
C     -2.576371   -0.296804   -0.201857
C     -1.211499   -0.352447   -0.232416
C     -0.373739    0.391108    0.682382
N      1.978629   -1.288402    0.854754
O     -1.996735    3.295345   -0.091753
O     -3.301586    0.466326    0.695225
H      3.792112   -1.828894    0.021051
H      3.933992   -0.486566    1.176421
H      3.645761   -2.218468    1.756909
H     -3.349478   -2.419612   -2.769536
H     -0.933333   -2.528810   -2.835909
H     -4.425621   -0.989491   -1.082246
H      1.022901    3.373822    0.003656
H      0.045292    3.666244   -1.529634
H      0.072136    1.192740   -1.916112
H      1.753880    1.824084   -1.611372
H     -0.462461   -0.039014    2.825760
H     -0.569218   -1.479193    1.795560
H      1.962383    0.135621    2.446064
H      1.491855   -1.528765    2.842002
H      1.123434   -2.396125   -1.195339
H      1.132069   -1.066118   -2.377260
H     -0.072354    2.048823    1.919599
H     -1.780979    1.672794    1.815349
H      1.548873    1.293100    0.780480
H      2.610196   -0.252280   -0.840208
H     -4.292123    0.500364    0.709769
