46

C      4.269376    0.798252    2.063389
C     -2.641492   -2.784847    0.671264
C      1.926677   -1.371333   -2.843618
C      0.566234   -1.493967   -2.798180
C      2.613790   -0.666272   -1.901034
C     -1.815502    3.009530   -0.119389
C     -1.912308    1.704044   -0.916659
C      0.017671   -0.350162    1.550618
C     -1.218584   -1.227455    1.780034
C     -1.580609   -1.032444   -1.757024
C      0.462836    1.898317    0.507316
C      3.480874    0.039669    1.032869
C     -0.118315   -0.869708   -1.745805
C     -0.562792    2.947470    0.680470
C     -1.619456    0.601048    0.045549
C     -2.126523   -0.732304   -0.387155
C      1.955459   -0.050287   -0.864944
C      0.583803   -0.157064   -0.794244
C     -0.138205    0.527670    0.334200
N     -1.662020   -1.753649    0.522149
O      3.532527   -1.215273    1.016306
O     -0.375867    3.805678    1.519062
O      2.697015    0.676289    0.098047
H      5.264991    1.035278    1.650757
H      3.734952    1.723308    2.350064
H      4.396234    0.120298    2.932857
H     -3.585585   -2.532693    0.146136
H     -2.206637   -3.716982    0.203935
H     -2.810788   -3.018813    1.756311
H      2.477026   -1.851822   -3.657878
H      0.027742   -2.053727   -3.547426
H      3.704839   -0.601564   -1.988194
H     -1.713830    3.859338   -0.826093
H     -2.681749    3.129480    0.564330
H     -2.928671    1.630967   -1.337627
H     -1.131557    1.769425   -1.702668
H      0.853130   -1.078387    1.410621
H      0.187328    0.220704    2.477369
H     -0.903531   -2.108106    2.400454
H     -1.964537   -0.646376    2.324627
H     -2.077167   -0.357881   -2.483405
H     -1.822942   -2.108733   -1.974212
H      1.050416    2.202610   -0.398673
H      1.142617    1.922457    1.374756
H     -2.100330    0.899137    1.025184
H     -3.246540   -0.741120   -0.394445
