59

C      1.046400    1.324446   -2.567886
C     -3.859335    0.415429    1.857781
C     -4.376691    1.504717   -0.231121
C     -1.759062   -0.378436   -2.073188
C      6.712104    0.943507   -0.582485
C      1.291976   -2.516695    2.863248
C     -3.004797   -2.002508   -0.206811
C     -0.725729    2.303103   -1.229852
C     -1.677184    2.120835   -0.116784
C     -3.952066   -0.868767   -0.214041
C     -1.547713   -1.653904   -0.054456
C      0.961833   -0.630744    0.107229
C      5.137070   -0.735689    1.328623
C      0.540743    1.405370   -1.127638
C      2.343300   -0.580138    0.463701
C      0.162516    0.136699   -0.537350
C      4.126043   -1.733268    1.635007
C      4.743720    0.285092    0.618081
C     -2.024929    0.711407    0.206249
C      3.316631    0.404954    0.152019
C      2.763186   -1.638016    1.200385
C     -3.474109    0.411661    0.365543
C     -1.282544   -0.301810   -0.676092
O      4.464221   -2.744098    2.324366
O      3.147123    1.451857   -0.515489
O      5.655249    1.285874    0.280889
O      1.864177   -2.680972    1.562065
H      1.458224    0.349241   -2.831377
H      0.258691    1.695450   -3.293850
H      1.874045    2.073909   -2.763365
H     -4.812042   -0.102936    1.978298
H     -3.036483   -0.114309    2.417413
H     -3.852765    1.455526    2.248581
H     -5.409779    1.058737   -0.199160
H     -4.427863    2.388297    0.433608
H     -4.159548    1.718995   -1.273974
H     -2.593487    0.275383   -2.358869
H     -2.139367   -1.414944   -2.363321
H     -0.954885   -0.229522   -2.836309
H      7.291378    0.139733   -0.084109
H      7.330171    1.842642   -0.785383
H      6.310272    0.487104   -1.518378
H      2.094535   -2.496210    3.628796
H      0.555884   -3.341867    3.052608
H      0.737572   -1.559693    2.944346
H     -3.265529   -2.744200    0.614304
H     -3.149216   -2.604658   -1.126565
H     -1.123757    2.079720   -2.231787
H     -0.384552    3.353037   -1.259533
H     -2.599804    2.706141   -0.409551
H     -1.292603    2.677766    0.775062
H     -4.860478   -1.190663    0.388093
H     -4.423213   -0.735495   -1.235996
H     -1.333626   -1.730281    1.013480
H     -0.965212   -2.401584   -0.610440
H      0.474217   -1.600601    0.484234
H      6.161192   -0.845536    1.678090
H      1.195006    2.070526   -0.555601
H     -1.549117    0.500385    1.218629
