137

C     11.653482    1.022542    0.426411
C     10.579499    2.695887    2.022709
C     -1.497954    0.382908   -0.759714
C     -1.466432   -2.048813   -0.887352
C      1.265681   -3.092404    0.274412
C      3.710397   -2.098279   -1.838167
C      8.534536   -1.374857    0.681683
C      5.221390   -1.370219    1.159219
C      3.870962   -2.070812    1.050278
C      0.964995   -0.777142   -1.789728
C     -0.386312   -1.620807    2.218086
C      1.064099   -1.384237    1.972524
C      2.339470   -0.114923   -1.843676
C      9.243018    1.554462    0.346787
C     -8.800251    3.014712    1.021240
C     -6.227208   -4.443360   -1.033881
C      8.517284    1.279122   -2.010815
C     -4.970221   -0.103378    3.768789
C      5.312053    0.421860   -2.010762
C      4.417692    1.178204   -0.010321
C     10.425655    1.739650    0.892145
C      9.073976    0.613837   -0.767848
C      5.676491   -0.894015   -0.156402
C     -5.131413    1.243892    3.129948
C     -7.872645    4.048321    0.447889
C     -5.480443   -3.346311   -1.743626
C      0.590438   -0.739698   -0.308626
C      2.871554   -1.197368    0.376704
C     -1.291527   -0.849825    1.299576
C     -8.068611    4.194589   -1.053937
C     -6.393424   -2.354693   -2.400124
C     -6.751445    3.925938   -1.766634
C     -6.362794   -1.177840   -1.489128
C     -6.262575    2.585085   -1.213366
C     -5.072277    1.200898    1.608618
C     -4.681729   -0.242003    1.278637
C      6.767103    0.125781   -0.145525
C     -5.376250   -1.539731   -0.433996
C     -5.945442    2.756731    0.239509
C     -3.421258   -0.453616    2.090966
C     -0.886457   -0.865901   -0.139516
C      1.451485   -1.629798    0.510241
C      3.344637   -0.869455   -1.022050
C      8.094350   -0.499818   -0.437011
C      4.558489   -0.078266   -0.827334
C      6.355865    1.167590   -1.145080
O    -10.094994    3.343725    0.564214
O     -5.338890   -5.347113   -0.457117
O     -6.437282    1.685902    3.450645
O     -8.526869    5.455243   -1.399928
O     -6.001837   -2.050733   -3.702468
O     -6.963928    3.868565   -3.138074
O     -7.640793   -1.009126   -0.944575
O     -5.098168    2.267977   -1.909086
O      7.971845   -1.276978   -1.586952
O     -3.812573   -0.767163    3.395858
O      7.286362    1.819468   -1.827660
O      5.461323    2.022515   -0.455870
O     -6.554564    3.887586    0.789164
O     -4.666803   -2.648401   -0.873465
O     -2.583495   -1.371149    1.522252
O     -6.215131    1.634185    1.015274
O     -4.550801   -0.498545   -0.050293
H     11.990803    1.448267   -0.554157
H     12.498891    1.187395    1.124375
H     11.522346   -0.062514    0.353956
H      9.858502    2.485701    2.840434
H     10.453931    3.756347    1.676909
H     11.591378    2.640787    2.473027
H     -0.719468    1.106049   -1.084766
H     -2.114880    0.113053   -1.638620
H     -2.211029    0.897681   -0.057030
H     -2.031647   -2.642933   -0.140015
H     -0.695432   -2.652647   -1.408159
H     -2.200419   -1.748516   -1.662759
H      1.995978   -3.622630    0.949302
H      0.267199   -3.437029    0.642285
H      1.461552   -3.455237   -0.729498
H      4.296141   -2.839940   -1.307195
H      2.852996   -2.497676   -2.419770
H      4.398848   -1.704673   -2.648206
H      8.344917   -0.977230    1.681427
H      8.108919   -2.405931    0.528756
H      9.635455   -1.517839    0.600145
H      5.210433   -0.642230    1.974115
H      5.928658   -2.183878    1.499374
H      3.946252   -3.093838    0.673439
H      3.559886   -2.191497    2.131956
H      0.961656   -1.782455   -2.202214
H      0.280106   -0.118857   -2.335304
H     -0.668098   -2.694145    2.290832
H     -0.596481   -1.215195    3.252843
H      1.338912   -0.361501    2.238997
H      1.611444   -2.075488    2.661676
H      2.693417   -0.156074   -2.902978
H      2.206605    0.928398   -1.571433
H      8.393723    2.095698    0.720214
H     -8.858090    3.105275    2.125855
H     -8.526085    1.988724    0.774916
H     -6.884461   -5.011719   -1.698172
H     -6.844945   -4.033276   -0.198877
H      9.231804    2.114361   -2.254430
H      8.605411    0.545983   -2.832022
H     -5.881730   -0.727791    3.681524
H     -4.866401    0.095909    4.871527
H      5.910925   -0.346308   -2.545507
H      4.774699    1.102206   -2.666553
H      4.538591    1.047747    1.061392
H      3.485631    1.720422   -0.193913
H     10.032277    0.154078   -1.014103
H      5.985055   -1.734331   -0.789877
H     -4.460174    2.006593    3.534757
H     -8.188770    5.030625    0.896079
H     -4.853316   -3.813076   -2.528630
H      0.846514    0.319018    0.004386
H      2.919705   -0.204573    0.929320
H     -1.314361    0.215651    1.657889
H     -8.820101    3.454874   -1.398142
H     -7.411093   -2.825189   -2.470452
H     -5.994589    4.666751   -1.488171
H     -6.052415   -0.301764   -2.090370
H     -6.999596    1.785695   -1.410442
H     -4.167281    1.818524    1.336916
H     -5.429793   -0.947484    1.710268
H      6.804570    0.588716    0.874137
H     -5.944308   -1.883090    0.456464
H     -4.849926    2.961214    0.326717
H     -2.867391    0.522451    2.220157
H    -10.491055    2.642460    0.016951
H     -5.354459   -5.321196    0.536126
H     -7.081129    1.409050    2.751514
H     -8.244740    6.170562   -0.797184
H     -5.256507   -2.677958   -3.912654
H     -6.755604    4.738782   -3.582978
H     -8.154006   -0.393780   -1.500153
H     -5.122321    2.567795   -2.852104
H      8.576635   -2.061746   -1.540824
