30

C      4.137239    0.289189    0.586819
C      2.964289   -0.664069    0.332256
C     -2.487814    1.286170   -0.382556
C     -3.482616    0.175448   -0.099302
C     -1.149677    0.797917    0.190039
C     -2.738186   -1.122364   -0.128286
C      0.637991   -0.876107   -0.346152
C     -0.621161   -0.198276   -0.795255
C      1.734811    0.128981   -0.119681
N     -1.659348   -1.143919   -1.090275
O      2.062190    0.802657   -1.287369
H      4.349097    0.857556   -0.341927
H      4.995979   -0.380169    0.846024
H      3.874350    0.938969    1.445346
H      2.698278   -1.168725    1.278598
H      3.250393   -1.352764   -0.474694
H     -2.404443    1.360847   -1.490031
H     -2.783522    2.253446    0.011004
H     -4.296705    0.231767   -0.846218
H     -3.927316    0.313881    0.904325
H     -1.371403    0.324307    1.182179
H     -0.476813    1.646159    0.386227
H     -2.400872   -1.443774    0.882351
H     -3.464329   -1.915639   -0.465014
H      0.973946   -1.529513   -1.189400
H      0.516744   -1.492727    0.554284
H     -0.377623    0.360228   -1.728861
H      1.492795    0.827302    0.716062
H     -2.029657   -1.093849   -2.045441
H      1.983383    1.787069   -1.198465
