45

C      3.924449   -0.802771   -0.297332
C      3.365056    1.533948    0.082910
C     -1.354343   -1.894376   -1.148299
C     -1.378479    2.611702   -0.591007
C     -3.483337   -0.328420    0.286877
C      1.273062   -1.651428    0.232023
C     -2.373051   -1.112835    0.923831
C     -2.924655    0.711557   -0.632859
C     -0.070056   -1.886246    0.924652
C      0.566049    0.654941    0.760372
C      1.736990   -0.282080    0.635975
C     -0.580000    0.272784   -0.153360
C      2.771610    0.208996   -0.348715
C     -1.103044   -1.109006    0.118073
C     -1.672771    1.277503    0.039045
O      2.314620    0.229504   -1.652125
O     -1.873314    1.450812    1.403126
H      4.211097   -0.963237    0.765942
H      4.759359   -0.298105   -0.864126
H      3.681872   -1.728726   -0.833344
H      4.280950    1.700413   -0.551561
H      3.739653    1.374105    1.127556
H      2.659143    2.368453    0.005222
H     -0.936598   -2.940458   -1.078105
H     -2.456700   -2.063181   -1.322050
H     -0.929165   -1.367822   -2.009508
H     -2.254962    2.977478   -1.199067
H     -1.247521    3.389926    0.200609
H     -0.508420    2.601222   -1.254781
H     -4.040586    0.183145    1.092144
H     -4.220678   -0.989564   -0.224944
H      2.017536   -2.409503    0.547180
H      1.064956   -1.698831   -0.856718
H     -2.710972   -2.169394    0.992398
H     -2.191824   -0.791997    1.990533
H     -3.603655    1.563282   -0.819811
H     -2.628645    0.310952   -1.630957
H     -0.287572   -2.956776    0.879845
H     -0.023036   -1.522392    1.979375
H      0.163711    0.578627    1.803150
H      0.813678    1.705143    0.585226
H      2.244995   -0.360584    1.621175
H     -0.204953    0.317171   -1.202194
H      1.954538    1.109024   -1.936115
H     -2.484988    2.197040    1.609737
