45

C      4.073059   -0.615075    0.135261
C      3.200944    1.511452   -0.697118
C     -1.353419   -1.147434    1.978176
C     -1.491169    2.561908   -0.526721
C     -3.519443   -0.582208    0.142837
C      1.349331   -1.629518    0.367649
C     -2.371006   -1.462286   -0.209454
C     -3.111830    0.861672    0.246009
C     -0.067569   -2.101306    0.146894
C      0.529005    0.484407   -0.715677
C      1.643552   -0.446826   -0.476875
C     -0.663193    0.340144    0.160333
C      2.868741    0.268132    0.107133
C     -1.076067   -1.042239    0.472659
C     -1.819021    1.081291   -0.503128
O      2.506988    0.628741    1.409941
O     -1.969892    0.652532   -1.801463
H      4.795484   -0.308764   -0.677294
H      3.875720   -1.677483   -0.028971
H      4.643696   -0.543245    1.103849
H      3.011369    2.421354   -0.086533
H      4.285519    1.528330   -0.981488
H      2.646608    1.530054   -1.658916
H     -2.166474   -1.857330    2.175429
H     -0.438773   -1.576725    2.483042
H     -1.521789   -0.175048    2.439220
H     -0.641142    2.682480   -1.240583
H     -1.252803    2.915177    0.484343
H     -2.352289    3.074233   -0.994909
H     -4.306717   -0.732091   -0.652761
H     -3.998631   -0.889074    1.085459
H      2.004081   -2.491619    0.044429
H      1.578638   -1.466192    1.433451
H     -2.597941   -2.487017    0.207524
H     -2.210118   -1.614413   -1.285059
H     -3.887171    1.457711   -0.277553
H     -3.077439    1.240496    1.283419
H     -0.184589   -2.445311   -0.887529
H     -0.228314   -2.981069    0.817870
H      0.916754    1.536755   -0.577821
H      0.168719    0.476829   -1.786241
H      2.000212   -0.829156   -1.478384
H     -0.453945    0.924452    1.104377
H      2.342577    1.588747    1.483548
H     -1.680251    1.334530   -2.465906
