39

C     -3.719292    0.060764   -0.755835
C     -2.666028    2.052570    0.108030
C      3.654870    1.629222   -0.530077
C      1.371299   -1.346724    1.386570
C      1.177067    1.784665   -0.272354
C      0.343073    1.088065    0.802632
C      2.350432   -0.355388   -0.880451
C     -1.949427   -1.765958    0.049273
C      1.283238   -1.398738   -1.030614
C     -0.600810   -2.407746    0.317552
C     -2.725472    0.578097   -0.027061
C      2.344613    0.922278   -0.579424
C     -1.743500   -0.337389    0.601267
C     -0.375467   -0.037370    0.117499
C      0.414481   -1.328211    0.202178
H     -3.865698   -0.993489   -0.924451
H     -4.470099    0.701767   -1.241783
H     -1.827873    2.469854   -0.492376
H     -2.624140    2.401565    1.162173
H     -3.582958    2.492732   -0.400325
H      4.021385    1.502619    0.531066
H      4.411614    1.196130   -1.189684
H      3.520835    2.719847   -0.655881
H      1.699504   -2.428410    1.462462
H      2.315307   -0.804633    1.176822
H      0.899001   -1.120370    2.342573
H      1.464103    2.798595    0.013998
H      0.527790    1.791760   -1.196581
H      1.071845    0.742450    1.573171
H     -0.350393    1.817378    1.218750
H      3.379238   -0.719871   -1.058025
H     -2.008617   -1.685961   -1.062834
H     -2.789674   -2.260498    0.525594
H      1.752596   -2.385935   -1.115863
H      0.650118   -1.171075   -1.935553
H     -0.613917   -2.773076    1.368376
H     -0.416018   -3.279619   -0.333595
H     -1.848910   -0.355720    1.704113
H     -0.474115    0.205822   -0.981331
