97

C     -6.547857    2.258303   -1.017269
C     -0.488121   -4.690980    1.846462
C      4.532323   -4.650552   -2.264723
C      3.077698    0.007753    2.168557
C      2.545981    1.401162    0.209077
C     -2.854857   -1.007634   -0.754984
C     -3.696687    2.235712    1.085767
C     -7.772470   -0.550454    0.779788
C     -7.392198   -0.202402   -1.586517
C      8.473118    3.797841    1.119088
C      8.815465    3.307625   -0.143522
C      7.374905    3.334725    1.808558
C      8.002814    2.337986   -0.671112
C      6.598043    2.353594    1.216185
C     -4.780626   -0.436927    1.056489
C     -3.313438   -0.384630    1.507514
C      2.370062   -0.640815   -1.950898
C     -0.412001    0.052510    1.399610
C      0.082109   -0.205495   -1.689846
C     -3.056355    1.866792   -1.303352
C     -6.208417    1.188513   -0.007388
C      0.117190   -3.344273    2.027058
C      4.548267   -3.169258   -2.347915
C      6.916246    1.859124   -0.021306
C      1.345344   -0.572113   -1.099288
C     -4.890896    0.539863   -0.128407
C      0.548827   -1.028905    1.237622
C      3.721229   -1.022131   -1.405215
C     -1.245645    0.579708    0.351034
C     -1.777104    1.415182   -1.831140
C      1.674175   -0.890375    0.297646
C      4.051480   -0.500289   -0.067508
C      6.078794    0.780881   -0.600317
C      2.798868    0.013839    0.701507
C     -2.675623    0.075352    0.251620
C     -3.620218    1.259245   -0.060775
C     -0.787012    0.757136   -1.034531
N      5.081768    0.405174    0.029598
N     -7.226912    0.182474   -0.250114
O      0.795190   -3.065349    3.070502
O      5.224885   -2.608263   -3.214944
O      6.494318    0.256512   -1.832592
O     -0.014489   -2.328482    1.095884
O      3.807250   -2.463444   -1.456096
O     -0.548617    2.154387   -1.482803
H     -6.323634    3.295045   -0.628601
H     -7.668926    2.309616   -1.188147
H     -6.108124    2.172041   -1.993694
H     -0.420124   -4.942311    0.773246
H      0.136420   -5.412212    2.430607
H     -1.520921   -4.654230    2.217997
H      4.789028   -5.126510   -3.238996
H      5.255888   -4.993595   -1.479747
H      3.534194   -5.047724   -1.923607
H      4.033572    0.542030    2.349866
H      3.255154   -1.023796    2.552319
H      2.319619    0.551202    2.727299
H      3.513673    1.947970   -0.009741
H      1.999160    1.436457   -0.751963
H      2.048072    2.041899    0.983203
H     -3.817996   -1.577319   -0.560270
H     -2.863496   -0.739577   -1.806688
H     -2.112222   -1.834982   -0.642025
H     -4.684004    2.292736    1.578629
H     -3.523953    3.291263    0.704740
H     -2.977172    2.116264    1.888485
H     -7.707207   -0.065914    1.766455
H     -8.899392   -0.613058    0.595148
H     -7.494729   -1.637770    0.815618
H     -8.323922    0.278043   -2.006743
H     -6.575723    0.211675   -2.247435
H     -7.395689   -1.295077   -1.801938
H      9.068180    4.571503    1.612932
H      9.686316    3.714822   -0.625477
H      7.106136    3.706913    2.785245
H      8.281466    1.971573   -1.658854
H      5.747552    2.024256    1.794439
H     -5.331876    0.024693    1.933054
H     -5.131436   -1.429692    0.873462
H     -3.147273    0.188394    2.408041
H     -3.002189   -1.454354    1.687483
H      2.186156   -0.426709   -2.983085
H      0.154065    0.877498    1.941659
H     -1.112662   -0.273414    2.240940
H      0.352791    0.246628   -2.717209
H     -0.418936   -1.148941   -2.039769
H     -2.997726    2.972679   -1.123969
H     -3.830988    1.652985   -2.103977
H     -6.443583    1.608619    0.986107
H     -4.938906   -0.047915   -1.088706
H      1.074568   -1.114988    2.250360
H      4.417737   -0.656905   -2.183526
H     -1.435328    1.665416    0.692447
H     -1.697279    1.278303   -2.955900
H      2.157632   -1.928291    0.247411
H      4.369661   -1.426211    0.559748
H      6.651567   -0.777650   -1.847592
