60

C     -0.042339   -3.974770   -1.669706
C     -2.676866    3.274146   -0.435317
C     -3.199864    0.353331    3.941396
C     -2.262480   -1.648621   -3.350204
C     -3.124804   -2.102618   -2.380014
C      4.845014    0.951728    1.116961
C     -1.236783   -0.792149   -2.981468
C     -2.961543   -1.704681   -1.061622
C      3.909049    0.278268    1.731491
C      1.712269    1.261353    1.666856
C      0.243647    1.158578    1.365168
C      1.147904    0.605430   -1.686957
C      4.290812    1.523216   -0.118933
C      2.124079    1.540044   -1.065279
C      2.093281   -1.064095    0.806722
C     -1.082991   -0.398476   -1.649832
C      0.605420   -1.166526    0.841730
C     -1.942117   -0.850709   -0.681084
C      0.106409   -2.427688    0.243045
C     -0.790804    1.850587   -1.009995
C     -2.478236   -0.207110    1.649861
C      2.608874    0.329554    0.958095
C     -0.116756    0.497423   -0.956187
C     -0.150535    0.061682    0.448163
N      3.091010    0.770147   -0.321907
N     -1.544160   -0.290248    0.603092
O     -0.625696   -3.263449    0.866730
O     -0.290712    2.843408   -1.584137
O     -3.696301   -0.606760    1.501309
O      0.401876   -2.801546   -1.061718
O     -2.022436    1.999718   -0.394492
O     -2.246549    0.286568    2.924787
H     -0.899955   -4.372455   -1.111044
H     -0.327870   -3.788931   -2.735184
H      0.775655   -4.724574   -1.602819
H     -3.528396    3.311313    0.245187
H     -2.954266    3.420611   -1.506619
H     -1.883179    4.026246   -0.212911
H     -4.111263    0.838133    3.561506
H     -3.396652   -0.686279    4.320397
H     -2.780749    0.955162    4.773093
H     -2.361995   -1.936871   -4.373155
H     -3.934170   -2.775812   -2.659071
H      5.867314    1.071988    1.460291
H     -0.538158   -0.409000   -3.693615
H     -3.655145   -2.077812   -0.319635
H      4.037520   -0.249240    2.669321
H      1.918874    1.130244    2.774427
H      2.028148    2.308116    1.477873
H     -0.254615    1.019805    2.341862
H     -0.170020    2.144799    0.997333
H      1.624511   -0.354268   -1.973348
H      0.880454    1.059346   -2.694227
H      4.970948    1.301945   -0.991241
H      4.158851    2.610837   -0.092300
H      1.677691    2.354832   -0.506493
H      2.728958    2.044494   -1.880610
H      2.541506   -1.545528   -0.113733
H      2.540080   -1.690338    1.638064
H      0.358252   -1.272493    1.950094
