44

C      1.045547    3.285837    2.117337
C      2.658753   -1.739683   -1.339179
C     -2.848337    1.076746   -0.120295
C     -2.256650   -0.539390   -1.873929
C      0.229387   -2.256659   -1.014372
C     -0.717993   -2.111267    0.129092
C      1.880322    2.032831    0.180824
C      2.377217    0.610075    0.084016
C      1.007621    2.183151    1.377979
C      1.265031   -1.193120   -1.113638
C     -1.172357   -0.702826    0.409210
C     -0.083325    0.284988    0.390246
C      0.105954    1.041191    1.689712
C     -2.389512   -0.343499   -0.403872
C      1.250096   -0.400701    0.159878
O     -1.028413    1.498995    2.273567
O     -3.431212   -1.179545    0.033852
O      1.500382   -1.176113    1.293695
H      1.692067    4.118848    1.904226
H      0.374147    3.317402    2.978439
H      3.120724   -1.325948   -2.258588
H      3.339518   -1.450426   -0.498613
H      2.646396   -2.850636   -1.441432
H     -3.633114    1.392283   -0.869473
H     -3.357057    1.151775    0.859845
H     -2.036615    1.821406   -0.258359
H     -1.299972   -0.216612   -2.307525
H     -3.024343    0.143006   -2.352420
H     -2.579103   -1.553752   -2.188756
H     -0.348496   -2.387422   -1.969483
H      0.762856   -3.222590   -0.871191
H     -1.595830   -2.777592   -0.120930
H     -0.303181   -2.607972    1.052144
H      1.373036    2.369430   -0.746515
H      2.766421    2.679603    0.350213
H      3.121418    0.474414    0.888995
H      2.928198    0.518126   -0.870429
H      1.050395   -0.503399   -1.940864
H     -1.554411   -0.737895    1.480381
H     -0.158757    1.048904   -0.413499
H      0.625031    0.369143    2.433337
H     -1.256550    2.417950    1.963045
H     -4.279813   -0.755929   -0.269006
H      2.234523   -1.803128    1.192334
