72

C      6.441192   -5.245090    1.207905
C      6.979625   -4.076599    1.655352
C      5.240505   -5.183764    0.541179
C      6.336671   -2.882516    1.442495
C      4.586066   -3.970824    0.324172
C      4.483187   -1.509530    0.571722
C     -0.414449   -2.251371    1.143506
C      0.365718   -3.242042    0.535171
C      3.338139   -1.320603   -0.046557
C     -1.516040   -1.920461   -0.906693
C     -6.489376    1.468512    2.375344
C     -5.838369   -0.584228    1.402089
C     -2.876749    1.725979    1.536840
C     -0.265033    5.351852   -1.311646
C      5.125293   -2.797802    0.772699
C     -1.372747   -1.575663    0.418138
C     -6.816771    0.201783    1.964736
C     -4.229528    1.191052    1.677965
C      0.195412   -3.561640   -0.792141
C     -5.214627    1.963823    2.237127
C     -0.759121   -2.889347   -1.518952
C     -4.536107   -0.070336    1.263902
C     -1.964607    0.850764    0.669025
C     -0.288639    3.843728   -1.571546
C      2.808328    0.015044   -0.178714
C      0.923832    3.505437   -2.380962
C      1.054548    1.988546   -2.442150
C     -2.190117   -0.557667    1.072098
C      1.075169    1.546073   -0.965518
C     -0.279812    1.822284   -0.461354
O     -0.233833    6.063190   -2.500643
O     -8.091350   -0.332578    2.087611
O      0.939204   -4.535525   -1.451674
O     -4.931713    3.268918    2.674193
O     -0.960235   -3.183899   -2.862090
O      3.401099    1.039844    0.272309
O      0.787275    4.064404   -3.630233
O      2.180816    1.580174   -3.107788
O     -3.552471   -0.853349    0.700420
O     -0.662886    1.318658    0.740879
O     -0.318695    3.252871   -0.310096
O      1.595496    0.263622   -0.820749
H      6.966173   -6.189887    1.385579
H      7.929817   -4.136231    2.181660
H      4.804506   -6.115583    0.180671
H      6.792284   -1.951226    1.814110
H      3.653835   -3.996386   -0.202824
H      4.983241   -0.616050    0.962255
H     -0.221396   -2.058198    2.185925
H      1.123390   -3.787658    1.079495
H      2.821601   -2.166251   -0.447802
H     -2.268861   -1.390390   -1.479440
H     -7.252880    2.081980    2.814535
H     -6.026212   -1.595625    1.055131
H     -2.965088    2.728340    1.039256
H     -2.419613    1.883944    2.546086
H     -1.166996    5.561790   -0.706256
H      0.604873    5.568131   -0.650210
H     -2.339034    0.984531   -0.382919
H     -1.231866    3.623724   -2.075687
H      1.818010    3.934595   -1.857623
H      0.103622    1.588574   -2.849498
H     -2.146778   -0.658993    2.193544
H      1.784148    2.270450   -0.490559
H     -1.095665    1.629818   -1.219418
H     -0.375196    7.013605   -2.269270
H     -8.304524   -0.828410    2.940264
H      1.650874   -5.061010   -0.969986
H     -3.994735    3.635816    2.573568
H     -1.674509   -2.676668   -3.384813
H      1.486942    4.695310   -3.889179
H      2.905737    2.246234   -2.889163
