72

C     10.852188    0.463008    0.996348
C     10.345312    0.504529   -0.281310
C     10.000628    0.126519    2.015353
C      9.026469    0.213355   -0.493733
C      8.654494   -0.168788    1.783488
C      6.767278   -0.415795    0.157021
C     -3.550357    1.599177    0.991834
C     -3.994782    2.621037    1.837926
C      5.828599   -0.752620    1.032181
C     -5.521773    1.952057   -0.295069
C     -5.822579   -3.948858    0.939852
C     -6.663036   -1.914092    0.049750
C     -3.106849   -2.150726   -1.040432
C      2.733882   -1.223657   -1.144630
C      8.142492   -0.128432    0.506430
C     -4.315344    1.259426   -0.082147
C     -6.845289   -3.071836    0.785483
C     -4.378415   -2.531369   -0.383905
C     -5.169323    3.306865    1.644584
C     -4.591739   -3.671254    0.351465
C     -5.920154    2.941442    0.551700
C     -5.452985   -1.643541   -0.527076
C     -2.821979   -0.686972   -0.676177
C      1.691667   -0.288096   -0.537694
C      4.450841   -1.031187    0.608138
C      2.063375    1.130336   -0.916356
C      0.895022    1.759358   -1.650579
C     -0.332000    1.572569   -0.784561
C     -3.958607    0.202256   -1.040633
C     -0.603917    0.076328   -0.565405
O     -8.099162   -3.293895    1.349789
O     -5.563142    4.323357    2.528173
O     -3.577821   -4.591413    0.531621
O     -7.106831    3.622180    0.341680
O      3.623527   -1.342622    1.498854
O      2.321882    1.926326    0.197960
O      0.734218    1.263274   -2.920319
O     -0.108498    2.240487    0.400975
O      4.029628   -0.968825   -0.693736
O     -5.169149   -0.520659   -1.279528
O     -1.686913   -0.235060   -1.313684
O      0.479016   -0.671318   -1.077405
H     11.911024    0.699652    1.143483
H     10.982630    0.767362   -1.129525
H     10.412971    0.097052    3.021094
H      8.673319    0.261766   -1.535726
H      8.028105   -0.424787    2.599330
H      6.474271   -0.354980   -0.884061
H     -2.613710    1.103063    1.202571
H     -3.348621    2.856845    2.683401
H      6.125539   -0.811927    2.067294
H     -6.131663    1.667984   -1.167631
H     -5.974618   -4.858624    1.521153
H     -7.495711   -1.201936   -0.076890
H     -3.154236   -2.237153   -2.141634
H     -2.302890   -2.723390   -0.577918
H      2.412633   -2.270677   -0.984139
H      2.717092   -1.033400   -2.243048
H     -2.654365   -0.686958    0.411349
H      1.718354   -0.379412    0.549316
H      2.927879    1.188460   -1.592447
H      1.073206    2.851704   -1.716316
H     -1.173608    2.070633   -1.298305
H     -3.712815    0.641371   -2.058001
H     -0.656825   -0.051448    0.511462
H     -8.339250   -2.966117    2.282164
H     -6.441097    4.778714    2.314281
H     -2.675850   -4.472876    0.139360
H     -7.670968    3.378728   -0.441700
H      2.840961    1.369129    0.831489
H     -0.204454    1.297857   -3.227406
H     -0.027175    1.590491    1.144747
