72

C      6.821021    4.110030    1.436594
C      6.532678    2.991049    2.182921
C      6.216705    4.280653    0.197928
C      5.648945    2.026234    1.724027
C      5.348697    3.301700   -0.217696
C      4.115152    1.205017   -0.030147
C     -1.269745    0.521848    3.247286
C     -1.449804    1.548571    4.141679
C      3.749233    0.087934    0.551748
C     -1.310645    2.098936    1.485845
C     -5.863730   -1.066940    1.307541
C     -3.943640   -1.946221    2.322573
C     -2.867807    0.141195   -0.641794
C     -1.675538   -2.917276   -3.351660
C      5.047409    2.178170    0.511036
C     -1.195216    0.783434    1.872016
C     -5.319163   -1.837087    2.308500
C     -3.700232   -0.545469    0.380551
C     -1.561177    2.851402    3.717134
C     -5.069018   -0.430712    0.358077
C     -1.491858    3.134286    2.381748
C     -3.136334   -1.316457    1.380651
C     -1.396645   -0.084422   -0.473473
C     -0.496175   -2.163497   -3.994487
C      2.792577   -0.845929   -0.073092
C      0.739789   -2.939208   -3.692252
C      1.847471   -1.997389   -3.263573
C     -0.986916   -0.344052    0.938858
C      1.321394   -1.415172   -1.958122
C      0.016119   -0.692831   -2.215349
O     -1.749543   -4.213495   -3.880573
O     -6.040307   -2.496559    3.282200
O     -1.745778    3.909203    4.623637
O     -5.739029    0.319160   -0.603147
O     -1.600924    4.449686    1.907955
O      2.465861   -1.907498    0.509136
O      1.144820   -3.757692   -4.744096
O      2.953798   -2.768004   -2.990850
O     -1.749821   -1.454582    1.432622
O     -0.889707   -1.084461   -1.282272
O     -0.461706   -0.909736   -3.480421
O      2.220879   -0.612716   -1.294087
H      7.499644    4.844420    1.795783
H      7.002086    2.867939    3.136218
H      6.403354    5.129803   -0.425159
H      5.437241    1.159723    2.321649
H      4.876451    3.432965   -1.185884
H      3.653228    1.383854   -1.012583
H     -1.185712   -0.491232    3.614314
H     -1.511148    1.381265    5.210477
H      4.152625   -0.157401    1.507048
H     -1.254050    2.366405    0.426681
H     -6.952506   -0.980920    1.296446
H     -3.445754   -2.546002    3.094666
H     -3.084201    1.223271   -0.541724
H     -3.188490   -0.117041   -1.674858
H     -1.394772   -3.069487   -2.285561
H     -2.609510   -2.364456   -3.391057
H     -0.885740    0.841969   -0.814102
H     -0.687147   -2.137836   -5.122520
H      0.534613   -3.557880   -2.768042
H      1.973560   -1.249426   -4.041877
H      0.074454   -0.675502    0.921076
H      1.092736   -2.302900   -1.336172
H      0.244260    0.408857   -2.169464
H     -1.076423   -4.809276   -3.468365
H     -6.279395   -2.076374    4.171973
H     -1.791912    3.658638    5.601491
H     -6.741675    0.410354   -0.628992
H     -1.732853    5.180255    2.590091
H      1.493820   -4.599485   -4.352690
H      3.111124   -3.345601   -3.803206
