67

C     -2.950336   -2.419768   -0.797450
C     -5.152265    0.620007   -1.490632
C      0.576218    2.240663   -2.083787
C      6.776226   -0.464533   -2.061561
C     -2.525597    4.482575   -1.103095
C     -1.528839   -2.174859   -0.525872
C     -1.510309   -2.937019    2.058628
C      4.585450   -0.667891   -0.428097
C      3.467871   -0.760843    0.392216
C     -1.837321   -1.480884    1.808621
C      1.438918    0.199682    2.360595
C     -0.019775   -3.133694    2.090170
C      1.205057   -1.192612    2.849040
C      3.393449    0.957914   -1.672774
C     -3.675066    0.519927   -1.483411
C      4.538138    0.208012   -1.474380
C      2.340976   -0.004112    0.174443
C      2.272780    0.868842   -0.855569
C      0.288237   -1.167526    0.703662
C      0.424193    1.351372    0.383008
C     -1.657320    0.197171   -0.085296
C     -1.636042    2.664360    0.286592
C     -1.199352   -1.090872    0.504815
C      1.044383    0.081467    0.900938
C     -1.042214    1.393834    0.601745
N      0.985421    1.546808   -0.880937
N      0.731982   -1.985131    1.781235
O     -2.981000    0.610330   -2.505310
O     -1.960734    3.444626    1.262142
O     -1.156341    1.243028    2.022751
O      5.641594    0.332409   -2.324133
O     -1.933129    3.210869   -0.949731
O     -3.025827    0.316695   -0.292091
H     -3.693485   -1.999881   -0.130056
H     -3.229054   -2.248258   -1.882572
H     -3.112942   -3.547437   -0.719474
H     -5.540406   -0.125184   -0.747051
H     -5.393801    1.668240   -1.170982
H     -5.570862    0.465981   -2.499805
H      0.558360    3.346746   -1.894351
H     -0.311605    1.834586   -2.561584
H      1.367171    2.166664   -2.902561
H      6.475637   -1.539931   -2.036624
H      7.572541   -0.275823   -2.800573
H      7.121074   -0.223644   -1.016662
H     -1.918253    5.159963   -1.736081
H     -3.511909    4.356437   -1.595168
H     -2.690537    5.004681   -0.138809
H     -0.947907   -3.097553   -0.326945
H     -1.065222   -1.774267   -1.479439
H     -1.995565   -3.174352    3.049471
H     -1.979517   -3.631694    1.347934
H      5.472724   -1.261924   -0.258843
H      3.560788   -1.471597    1.206264
H     -1.490042   -0.920478    2.670487
H     -2.940407   -1.409946    1.794321
H      0.870648    0.901879    2.951628
H      2.507490    0.511131    2.449739
H      0.304873   -4.034674    1.489945
H      0.231742   -3.432025    3.151455
H      2.208503   -1.598907    3.177166
H      0.603389   -1.205712    3.780972
H      3.376411    1.650444   -2.511859
H      0.719640   -1.657859   -0.225437
H      0.848973    2.164898    1.065833
H     -1.208465    0.245315   -1.102822
H     -1.119408    2.143334    2.436009
