38

C     -2.553668   -0.666465   -0.885491
C      0.871208    2.949326   -0.962688
C      3.324592   -0.791834   -0.754344
C      1.997091   -0.797763    1.382550
C     -1.130792   -1.866308    0.803179
C     -0.267248   -2.228948   -0.311223
C     -2.111434    1.715143    0.939996
C     -2.051553   -0.682917    0.515784
C     -0.088324    2.128940   -0.132369
C     -1.216765    0.497879    0.872173
C      0.790945   -1.394970   -0.842443
C     -1.107145    2.774123    0.676593
C     -0.122970    0.805364   -0.051137
C      0.845824    0.017709   -0.832965
C      1.923557   -0.799123   -0.105777
O     -1.171083    3.960438    1.088451
H     -2.824001   -1.639688   -1.290122
H     -1.877682   -0.105889   -1.591800
H     -3.502825   -0.053170   -0.887846
H      1.045730    3.906203   -0.475145
H      0.410775    3.034756   -1.962512
H      1.824447    2.355743   -1.088797
H      3.273080   -0.208963   -1.710205
H      4.048234   -0.326369   -0.089430
H      3.608250   -1.825332   -0.981450
H      1.478866    0.066223    1.785721
H      3.057524   -0.696317    1.765930
H      1.684230   -1.781779    1.832376
H     -0.698205   -1.683142    1.782941
H     -1.846608   -2.732676    0.956546
H      0.179436   -3.244771   -0.067605
H     -0.978726   -2.499268   -1.158345
H     -2.945278    1.699688    0.239618
H     -2.519305    1.898401    1.954946
H     -2.887641   -0.749596    1.216528
H     -0.883733    0.336271    1.937649
H      1.179789   -1.901953   -1.801413
H      1.241405    0.531034   -1.767872
