67

C     -2.910411   -1.088396    2.340335
C     -5.214655    1.887850   -0.019797
C      1.290676    2.242130    1.750788
C      7.026740   -1.300898    1.378819
C     -1.663762    4.845287   -1.835513
C     -1.568540   -1.325541    1.786035
C     -2.337011   -2.969934   -0.422806
C      4.536771   -1.440068    0.147770
C      3.306809   -1.533470   -0.477087
C     -2.331212   -1.490985   -0.587395
C      0.990487   -0.792734   -2.220309
C     -0.927422   -3.473257   -0.627909
C      0.411453   -2.187779   -2.184985
C      3.847461    0.544871    1.188255
C     -3.836546    1.620491    0.499263
C      4.836697   -0.399357    0.994997
C      2.328899   -0.582588   -0.274087
C      2.601417    0.454307    0.557959
C      0.015786   -1.301841   -0.052448
C      0.717283    1.073184   -0.529756
C     -1.599927    0.631718    0.362449
C     -0.949820    2.841231   -0.599732
C     -1.329560   -0.810606    0.365740
C      0.921653   -0.391728   -0.783786
C     -0.716961    1.414830   -0.598563
N      1.453488    1.342564    0.638371
N      0.027890   -2.477932   -0.862984
O     -3.468701    2.095198    1.606787
O     -0.789168    3.661291    0.337033
O     -1.157502    0.933387   -1.876923
O      6.067156   -0.294237    1.628135
O     -1.421276    3.450900   -1.785280
O     -2.916553    0.863480   -0.180773
H     -2.908710   -0.189874    2.990630
H     -3.729320   -1.027017    1.610511
H     -3.201925   -1.917564    3.059370
H     -5.214125    2.853596   -0.577118
H     -5.518350    1.103839   -0.726981
H     -5.892802    1.981043    0.859070
H      1.599046    3.287854    1.486298
H      0.325449    2.174726    2.276318
H      2.037675    1.997739    2.584838
H      7.186045   -1.446262    0.271794
H      8.036523   -1.009121    1.766132
H      6.751843   -2.282982    1.783042
H     -2.363758    5.083970   -2.648307
H     -2.105574    5.135831   -0.838124
H     -0.697188    5.391910   -1.899339
H     -1.339533   -2.416229    1.849660
H     -0.768420   -0.830192    2.404676
H     -2.673317   -3.315957    0.564693
H     -3.051305   -3.383170   -1.164423
H      5.293406   -2.181185   -0.012935
H      3.117233   -2.368746   -1.133610
H     -1.981707   -1.244009   -1.607528
H     -3.331263   -1.023600   -0.488117
H      0.462752   -0.194199   -2.945176
H      2.061726   -0.820028   -2.592657
H     -0.961488   -4.157220   -1.503059
H     -0.594664   -4.129230    0.229679
H      1.217983   -2.925768   -2.475537
H     -0.351267   -2.313067   -2.974856
H      4.086195    1.368694    1.859525
H      0.568015   -1.617984    0.889439
H      1.223107    1.602725   -1.379175
H     -1.525417    1.110738    1.345788
H     -0.998504    1.659369   -2.527128
