52

C     -5.863342   -1.649591    3.088535
C      6.433374    1.384734   -2.083885
C      4.252401    1.446587    2.979439
C     -5.168666   -0.579739   -1.525215
C     -1.851833   -1.450596    2.222510
C     -3.196837   -1.516335    2.511201
C      1.425140    0.325583   -2.824279
C      0.035518    0.863757   -2.458571
C      0.033307   -0.814477    0.760658
C      3.619163    0.854053   -1.821301
C      2.505922    0.877042    0.673964
C     -1.842179    0.293825   -1.159395
C     -1.427395   -0.865157    1.036603
C      2.277132    0.606294   -1.645029
C      1.699941    0.613956   -0.394541
C     -2.309865   -0.342300    0.128790
C      0.257145    0.348657   -0.178798
C     -4.089182   -0.983885    1.585944
C      4.407491    1.119293   -0.695044
C      3.861005    1.134393    0.569391
C     -3.652665   -0.406655    0.414564
N     -0.456248    0.046403   -1.386662
O     -0.279960   -1.276081   -1.664171
O     -5.452037   -1.055878    1.888717
O      5.748497    1.367886   -0.862598
O      4.685697    1.402586    1.651824
O     -4.557731    0.106734   -0.472097
H     -5.526645   -1.008544    3.920719
H     -6.960231   -1.753160    3.084865
H     -5.434334   -2.685953    3.213108
H      5.845388    1.773519   -2.918479
H      6.741583    0.344832   -2.325118
H      7.353634    2.004879   -2.022836
H      4.046006    0.442920    3.394289
H      5.013974    2.003590    3.564133
H      3.316833    2.075706    3.012477
H     -6.269723   -0.652486   -1.415861
H     -4.756853   -1.593584   -1.703437
H     -4.964230    0.000397   -2.458800
H     -1.102951   -1.853702    2.914182
H     -3.526046   -1.972957    3.436230
H      1.340014   -0.765915   -2.958640
H      1.800055    0.817871   -3.742296
H      0.220565    1.901478   -2.063269
H     -0.627971    0.900292   -3.340116
H      0.597791   -0.618535    1.698278
H      0.385241   -1.723232    0.243297
H      4.038272    0.839469   -2.819231
H      2.107137    0.898035    1.699485
H     -2.506257   -0.080179   -1.965270
H     -2.002855    1.405024   -1.077824
H     -0.222195    1.234326    0.289562
