43

C      3.686521    0.033843   -0.314754
C      2.481788    1.479148    1.306400
C     -1.991056    3.426271   -0.300906
C     -1.974579   -2.902402    0.125325
C      0.378282   -2.398961    0.516692
C      1.417859   -1.344501    0.890882
C     -2.706784    1.137142    0.168612
C     -2.444712   -0.113687   -0.637101
C      2.387479    0.790022   -0.012465
C     -1.683829    2.149640   -0.206672
C     -1.008320   -1.827223    0.492177
C      1.274447   -0.212927   -0.088724
C     -0.086064    0.365356    0.071045
C     -0.258388    1.739188   -0.491199
C     -1.062666   -0.641821   -0.477696
O      0.068528    1.861745   -1.813210
O     -0.595871   -1.019614   -1.739746
H      4.036540   -0.541843    0.553968
H      4.435354    0.771994   -0.611294
H      3.458390   -0.667169   -1.156938
H      1.693927    1.201074    2.028415
H      3.469161    1.229941    1.783240
H      2.515492    2.598586    1.164112
H     -1.259408    4.173073   -0.572289
H     -3.010959    3.735189   -0.099351
H     -1.602574   -3.872083    0.505550
H     -2.940471   -2.714162    0.677759
H     -2.248591   -2.915674   -0.942895
H      0.641258   -2.749504   -0.508198
H      0.383804   -3.228450    1.259758
H      2.406989   -1.828332    0.867957
H      1.158284   -0.962241    1.921037
H     -3.726940    1.487533   -0.122046
H     -2.732226    0.946383    1.262865
H     -3.157897   -0.891697   -0.278253
H     -2.684935    0.116963   -1.694879
H      2.250619    1.514242   -0.822381
H     -1.282036   -1.411850    1.479932
H      1.326929   -0.672397   -1.112765
H     -0.291302    0.437848    1.175563
H      0.372077    2.430262    0.095305
H     -0.386095    1.273763   -2.432989
H     -0.708025   -1.982670   -1.909842
