63

C      6.446887   -0.109697    1.877504
C      6.507871   -2.315998    0.702283
C      1.604612    2.963773   -2.620970
C      6.207147   -0.207450   -0.566149
C      0.165848    0.262732   -1.530492
C     -6.689074    0.789006   -0.739246
C      0.789818    0.641526    1.783964
C     -1.529767    0.850087    1.176352
C      6.877941   -0.845987    0.631854
C      2.081672    1.682428   -2.014007
C     -0.089305    0.935983    0.844280
C      0.316647    1.341428   -0.510870
C      1.290585    0.504533   -2.473767
C     -5.699917    0.000390    0.059191
C      4.747626   -0.298388   -0.406880
C      1.775744    1.670243   -0.535800
C     -5.956162   -1.491227    0.024117
C     -4.615022   -2.173130    0.173979
C     -3.821437   -1.489446    1.268576
C      2.562042    0.607130    0.184508
C     -3.537816   -0.066412    0.774221
O     -6.638869    0.558121   -2.097451
O      1.578664   -0.118775   -3.479153
O      4.135776   -1.378250   -0.692727
O     -6.852222   -1.884193    1.013180
O     -3.912351   -1.936047   -1.023087
O     -4.475874   -1.483122    2.484984
O      2.165994    0.694322    1.563179
O     -2.204986   -0.056982    0.379894
O     -4.378326    0.253971   -0.294739
O      3.950096    0.741672    0.049390
H      6.004487   -0.865759    2.568051
H      5.672288    0.637622    1.626451
H      7.324687    0.372795    2.344408
H      7.374048   -2.878682    1.129513
H      6.245107   -2.727917   -0.272675
H      5.628079   -2.386710    1.389656
H      0.505499    3.086747   -2.556380
H      2.039326    3.795877   -2.026028
H      1.922949    3.074679   -3.670344
H      6.569279    0.819580   -0.712020
H      6.485373   -0.778147   -1.494006
H     -0.769137    0.361801   -2.133912
H      0.163101   -0.754673   -1.121768
H     -6.517011    1.862185   -0.526567
H     -7.703186    0.536985   -0.360555
H      0.490273    0.337375    2.795938
H     -1.631580    0.633580    2.248129
H     -2.043473    1.830890    1.017316
H      7.970100   -0.782876    0.535256
H      3.158680    1.576641   -2.179335
H     -0.282359    2.225398   -0.872512
H     -5.805211    0.342691    1.123515
H      1.912951    2.649601   -0.050461
H     -6.386178   -1.817191   -0.945562
H     -4.694795   -3.255168    0.300233
H     -2.887953   -2.075999    1.393171
H      2.267351   -0.411370   -0.125201
H     -3.691131    0.643113    1.611311
H     -6.465628    1.413699   -2.595522
H     -7.320039   -2.710255    0.808322
H     -4.498624   -1.686291   -1.764645
H     -3.841115   -1.712464    3.222911
