39

C     -0.773276    2.995779   -1.232268
C     -0.914332   -2.228535   -1.432571
C      2.791873    0.772282    1.177471
C      3.006529   -0.861828   -0.667979
C     -2.608815   -1.249721    0.145375
C     -2.441656   -0.484256    1.464263
C     -1.617783    1.662383    0.681052
C      1.365635    0.934387   -0.870662
C      0.965690   -0.788156    0.790036
C     -0.836510    1.876049   -0.537022
C     -1.136973   -1.584107   -0.134568
C     -1.195839    0.326655    1.243666
C     -0.122585    0.614976   -0.861796
C      2.015201    0.009749    0.103311
C     -0.380746   -0.367440    0.184725
H     -1.339564    3.851629   -0.896403
H     -0.180805    3.113338   -2.131892
H     -0.815247   -1.604714   -2.307291
H     -0.020820   -2.908889   -1.384112
H     -1.774913   -2.932563   -1.633264
H      2.237137    0.756722    2.152556
H      3.735542    0.221725    1.369252
H      2.953744    1.825437    0.877687
H      3.458975   -1.542073    0.062852
H      3.737499   -0.144005   -1.116800
H      2.459935   -1.347008   -1.481341
H     -3.040366   -0.623879   -0.632605
H     -3.186287   -2.158816    0.392912
H     -2.392946   -1.165294    2.314164
H     -3.325438    0.181447    1.563642
H     -2.707170    1.666915    0.387892
H     -1.490036    2.469104    1.442726
H      1.568938    1.976278   -0.534197
H      1.806219    0.852143   -1.883866
H      1.164485   -1.875909    0.574053
H      0.923806   -0.676573    1.877875
H     -0.900976   -2.355046    0.661933
H     -0.597805    0.446201    2.162914
H     -0.390321    0.345612   -1.891719
