38

C     -2.593863    2.597299   -0.338077
C     -1.641071   -2.560268   -0.396164
C      3.451457   -0.216752    0.930149
C      2.474347   -0.971198   -1.271109
C     -0.360709    2.358948   -1.143985
C      0.967393    1.675349   -1.362149
C     -1.496155   -1.743548    1.890368
C     -2.452108    0.310196    0.960599
C     -1.350153    1.795768   -0.464350
C     -0.723799   -1.845845    0.606293
C     -1.391298    0.475237    0.193295
C      1.529012    1.154453   -0.090886
C     -0.336724   -0.551546    0.000686
C      0.928272    0.029257    0.577714
C      2.251340   -0.140550   -0.018825
O     -2.616728   -0.895576    1.644828
H     -2.510443    3.488834   -1.006374
H     -3.491084    2.052411   -0.690282
H     -2.711203    3.017263    0.686221
H     -1.594836   -2.078112   -1.394890
H     -2.710803   -2.470047   -0.073222
H     -1.388463   -3.622122   -0.498336
H      4.404689   -0.176742    0.396426
H      3.363489    0.635773    1.642771
H      3.377382   -1.149167    1.528452
H      3.400375   -0.638711   -1.784182
H      1.629552   -0.971350   -1.956657
H      2.653173   -2.017063   -0.932345
H     -0.505927    3.340004   -1.557057
H      0.840790    0.899860   -2.140624
H      1.658434    2.465104   -1.742171
H     -1.830546   -2.765319    2.154013
H     -0.854649   -1.346028    2.706585
H     -3.177376    1.070682    1.066910
H      0.165609   -2.507566    0.697979
H      1.949353    1.973385    0.565831
H     -0.199590   -0.710877   -1.095846
H      0.892861    0.038561    1.708412
