85

C     -2.171007   -2.110275    2.519806
C      7.430712   -3.417959   -0.252798
C     -1.739967    4.710042   -2.021023
C     -7.775101    0.021613   -0.562864
C     -4.451786    3.007531    0.098632
C      0.737995   -3.767480   -0.820843
C      0.224900   -2.077889   -2.395679
C      5.658478    0.198107    0.693981
C      2.133728   -3.538434   -1.053740
C      1.619589   -1.880234   -2.598583
C      6.288977   -1.001207    0.414523
C      2.464374    4.513564    0.445533
C     -4.216689   -3.332077    0.399607
C      3.371160    4.270126    1.569026
C     -3.108559   -3.829383    1.231963
C      4.007958    1.968209    0.637825
C     -1.663865   -3.086052   -1.046863
C      3.892466   -0.120251   -0.890475
C      0.357434    3.818290   -0.530708
C     -5.369820   -1.287239   -0.156348
C      0.518478    1.196018    0.510021
C     -0.198234   -3.023978   -1.493021
C      4.490217    0.655581    0.077150
C      1.475473    3.432412    0.228414
C     -4.140880   -1.883102    0.030677
C      2.560310   -2.602471   -1.921989
C      1.531154    2.108740    0.736951
C      2.801583    1.954141    1.508567
C     -1.782269   -2.108742    0.157139
C      5.652527   -1.749220   -0.556887
C     -0.604615    2.914248   -0.732286
C      4.497280   -1.312150   -1.172289
C     -0.608331    1.576543   -0.244731
C     -5.305088    0.039124   -0.489551
C     -2.918411   -1.201817   -0.105370
C     -4.122819    0.696981   -0.620393
C     -2.826194    0.148982   -0.443446
N      2.935884    3.176267    2.381517
N     -2.040178   -2.914931    1.321970
O      6.263102   -2.990099   -0.881549
O     -1.673559    3.423390   -1.513546
O     -6.539901    0.684160   -0.690490
O     -4.318927    2.052012   -0.967955
O      3.991418   -2.294754   -2.147712
O     -1.731668    0.896731   -0.601990
H     -2.240097   -1.037274    2.324928
H     -3.043242   -2.482588    3.120729
H     -1.279141   -2.313534    3.152471
H      7.313413   -3.508610    0.851312
H      8.256441   -2.731755   -0.530453
H      7.659256   -4.433318   -0.627580
H     -0.844774    4.913452   -2.651473
H     -1.622531    5.406787   -1.136504
H     -2.688601    4.961607   -2.493222
H     -7.759644   -0.935244   -1.145865
H     -8.547961    0.670533   -1.072925
H     -8.051716   -0.155108    0.502514
H     -4.605964    4.014736   -0.288688
H     -3.634260    2.909609    0.834631
H     -5.389240    2.723127    0.657554
H      0.703284   -4.599506   -0.071205
H     -0.314229   -1.370645   -3.082387
H      6.166084    0.804356    1.480362
H      2.711288   -4.264572   -0.424247
H      1.759001   -1.089705   -3.385736
H      7.186742   -1.319082    0.905068
H      2.973708    4.698363   -0.543519
H      1.844654    5.459066    0.644367
H     -5.191431   -3.531599    0.933595
H     -4.307975   -3.945933   -0.524517
H      4.424888    4.252417    1.254724
H      3.319413    5.173598    2.254785
H     -3.496713   -3.978284    2.283995
H     -2.821599   -4.850755    0.896032
H      4.004679    2.804960   -0.039364
H      4.836116    2.300095    1.385153
H     -2.019839   -4.099241   -0.789529
H     -2.429102   -2.743918   -1.717412
H      2.982518    0.267161   -1.472217
H      0.316950    4.842810   -0.926578
H     -6.304076   -1.835846   -0.046403
H      0.545566    0.127445    0.883916
H      2.856699    1.180811    2.293325
H     -0.831088   -1.614437    0.270544
H      1.965195    3.396951    2.695793
