85

C     -4.496402    0.878756    1.927748
C      3.128660    7.274972   -0.228610
C      1.358201   -4.694321    2.384197
C     -4.865223   -2.962808   -3.744227
C     -0.670281   -3.946845   -2.244805
C     -0.827334    2.247978    2.240984
C     -1.829033    1.335173    0.284172
C      3.998104    3.457592   -1.584325
C     -0.309014    3.346136    1.445648
C     -1.290345    2.438574   -0.445375
C      3.737538    4.741624   -1.130236
C      4.982282   -1.868747    0.661389
C     -5.514068   -1.340045    0.808535
C      5.753324   -1.138842   -0.383555
C     -5.255358   -1.284299    2.264379
C      3.631611    1.128220   -2.025728
C     -1.841617    0.009253    2.396385
C      1.706643    2.797949   -1.533164
C      2.778749   -2.646217    1.138576
C     -4.433112   -2.059918   -1.259487
C      1.509746   -0.534279   -0.190027
C     -1.568833    1.262215    1.626655
C      3.033535    2.475424   -1.790478
C      3.504525   -1.627704    0.517359
C     -4.220699   -1.606136    0.067928
C     -0.541856    3.397926    0.151777
C      2.912674   -0.547415   -0.158374
C      3.868843    0.439610   -0.646553
C     -2.901135   -0.952595    2.011865
C      2.401932    5.010478   -0.872077
C      1.430932   -2.590822    1.083883
C      1.437315    4.056299   -1.065386
C      0.757293   -1.534953    0.416149
C     -3.344351   -2.366437   -1.991523
C     -3.003927   -1.458007    0.651062
C     -2.102646   -2.225907   -1.413565
C     -1.820720   -1.794049   -0.137561
N      5.211389    0.085631   -0.693843
N     -4.130780   -0.380732    2.497634
O      2.150164    6.310178   -0.413461
O      0.758341   -3.639956    1.725040
O     -3.496199   -2.819049   -3.321573
O     -1.069471   -2.596213   -2.315953
O      0.064128    4.479206   -0.679307
O     -0.602880   -1.655495    0.457147
H     -5.547291    1.165671    2.258025
H     -4.583534    0.874769    0.821121
H     -3.888716    1.739294    2.270269
H      3.674690    7.544914   -1.158756
H      3.881414    6.883666    0.497757
H      2.679303    8.160363    0.256184
H      1.763677   -4.304903    3.364626
H      0.625501   -5.522883    2.596943
H      2.217126   -5.092221    1.794603
H     -5.400218   -3.654363   -3.060083
H     -5.404930   -1.996700   -3.698804
H     -4.852941   -3.394022   -4.749844
H     -0.660364   -4.295519   -1.187271
H      0.399313   -3.960785   -2.577751
H     -1.307163   -4.626446   -2.843120
H     -0.503629    2.469046    3.292623
H     -2.440052    0.706259   -0.416373
H      5.078920    3.262657   -1.788106
H      0.241204    4.064496    2.145315
H     -1.620956    2.342484   -1.513891
H      4.518112    5.470150   -0.988665
H      5.235898   -1.610882    1.700997
H      5.137181   -2.987266    0.577343
H     -6.035019   -0.475659    0.392108
H     -6.155322   -2.250177    0.620601
H      5.955633   -1.863799   -1.215823
H      6.778286   -0.967535    0.071546
H     -6.129867   -0.752517    2.747150
H     -5.146005   -2.238645    2.780029
H      4.681000    1.319359   -2.426916
H      3.247405    0.407809   -2.693717
H     -2.076646    0.165147    3.506122
H     -0.927711   -0.654905    2.510684
H      0.888910    2.068763   -1.865795
H      3.313325   -3.456799    1.659555
H     -5.445881   -2.135686   -1.609346
H      0.896113    0.286299   -0.688874
H      3.880310    1.384326    0.037136
H     -2.791247   -1.899148    2.662268
H      5.843531    0.923985   -0.569191
