28

C     -4.693441    0.497520    0.535540
C     -4.029838   -0.273618   -0.583590
C      4.411294   -1.047366   -0.271620
C      4.726837    0.289521   -0.133838
C      3.085434   -1.462459   -0.185778
C      3.723059    1.224578    0.090792
C      0.780259   -0.883217    0.129691
C      2.097470   -0.520850    0.038034
C      2.413667    0.810647    0.175055
C     -2.556674   -0.082480   -0.624356
C     -0.247697    0.027769    0.353766
C     -1.651209   -0.419939    0.443558
C      1.362489    1.686976    0.397135
O      1.672541    2.907994    0.520687
O     -1.891166   -1.390099   -0.685711
O      0.115620    1.286114    0.476507
H     -4.785734    1.558316    0.191005
H     -5.693110    0.041774    0.692472
H     -4.045143    0.482821    1.413175
H     -4.456435    0.088125   -1.565319
H     -4.320263   -1.316231   -0.474009
H      5.191331   -1.771195   -0.445822
H      5.761451    0.593806   -0.203350
H      2.786187   -2.494353   -0.286299
H      3.934907    2.271534    0.202373
H      0.502769   -1.931169    0.024834
H     -2.185227    0.643093   -1.381881
H     -2.009376   -0.817613    1.400793
