37

C      2.716130   -2.268600    0.090829
C      0.536989    3.094139    0.615567
C     -2.259613    0.473052    1.527995
C     -3.234530    0.755686   -0.840148
C      1.807432    1.796626   -1.099450
C      0.400567   -2.581952   -0.125413
C      2.449157    0.415876   -0.920433
C     -0.794450   -1.967702    0.615291
C      1.537203   -1.665697    0.055371
C      0.868716    1.956439    0.044390
C      1.662727   -0.200718    0.208838
C     -1.419420   -0.997891   -0.354219
C      0.413386    0.566509    0.372848
C     -0.699072    0.245772   -0.550717
C     -2.115429    0.215266    0.057853
H      2.759821   -3.340479   -0.010593
H      3.672004   -1.754656    0.217747
H      0.943540    4.029362    0.275276
H     -0.155282    3.103669    1.442541
H     -3.343095    0.651269    1.721170
H     -1.724665    1.347553    1.897012
H     -2.011699   -0.439082    2.138529
H     -3.256182    1.870763   -0.805271
H     -4.181693    0.430054   -0.343887
H     -3.145477    0.388172   -1.861308
H      2.597757    2.576539   -1.104959
H      1.283707    1.763407   -2.071401
H      0.169006   -2.724576   -1.196383
H      0.567526   -3.577582    0.359304
H      3.530998    0.531095   -0.664141
H      2.400727   -0.183861   -1.836442
H     -1.524601   -2.737231    0.906816
H     -0.390673   -1.508185    1.514928
H      2.286276   -0.039771    1.138010
H     -1.810391   -1.503948   -1.274225
H      0.115497    0.592128    1.446084
H     -0.652893    0.688556   -1.587405
