76

C      6.163978   -1.824118   -0.029670
C     -4.912615    2.803071    1.404073
C     -4.841398   -5.204196   -0.578737
C     -0.733378    3.486896    1.344038
C     -1.396726    2.054269   -0.432330
C      5.210499    2.458195   -0.658378
C      0.277300    4.047465    0.502033
C     -0.373470    2.649315   -1.219701
C      5.105921    3.810454   -0.760761
C      3.479930   -3.549546   -1.158383
C     -5.808094   -0.343212    1.137912
C      4.437731   -3.404073   -0.007613
C     -5.666119    0.890660    0.281728
C     -2.402883    1.661352    1.826721
C      4.603438    0.182853   -0.525421
C      2.919835    2.047315   -1.240779
C      1.070460   -3.351672   -0.768978
C     -4.762704   -2.469674    0.357779
C      1.424721   -0.680573    0.115894
C     -1.555442    2.480552    0.863196
C      4.140470    1.530866   -0.886497
C      2.273751   -2.733769   -0.742661
C     -4.629492   -1.201132    0.779175
C      0.454160    3.619667   -0.752243
C      2.506418   -1.381913   -0.307827
C      3.929957   -1.072516   -0.543679
C     -3.542721    0.880476    1.362090
C      3.838959    4.274338   -1.110428
C      2.800092    3.405759   -1.330514
C      0.006055   -2.583462   -0.334133
C      0.176604   -1.285425    0.097230
C     -3.621761   -3.167245   -0.031918
C     -3.372388   -0.498024    0.862867
C     -2.406726   -2.537798    0.026408
C     -2.276858   -1.194633    0.477570
N      4.738176   -2.034771    0.222907
N     -4.508325    1.639110    0.620035
O      3.755517    5.676582   -1.208611
O     -3.648932   -4.472943   -0.479661
O      1.546815    4.123403   -1.633969
O     -1.265257   -3.193014   -0.363698
O     -1.024548   -0.681129    0.482566
H      6.488594   -0.937170    0.540549
H      6.647787   -2.741925    0.423334
H      6.412710   -1.849540   -1.087740
H     -5.958389    3.085526    1.172354
H     -4.239051    3.653411    1.297883
H     -4.904188    2.561891    2.506884
H     -5.467743   -5.097542    0.329236
H     -4.642039   -6.285029   -0.727719
H     -5.442037   -4.809967   -1.435417
H     -0.680507    4.045226    2.318990
H     -1.955940    1.300771   -1.061926
H      6.201946    2.043000   -0.379095
H      0.817030    4.876305    1.063598
H     -0.412415    2.192592   -2.248019
H      5.927030    4.494365   -0.588883
H      3.911158   -3.231013   -2.111119
H      3.126513   -4.625331   -1.239298
H     -5.911498   -0.098950    2.178183
H     -6.757471   -0.882320    0.848007
H      5.369040   -3.999297   -0.173147
H      3.948803   -3.874339    0.903693
H     -5.718765    0.634319   -0.808795
H     -6.581430    1.521915    0.493049
H     -1.689493    0.959777    2.432989
H     -2.814440    2.256806    2.698727
H      4.952975    0.301679    0.590720
H      5.636626    0.009914   -1.007305
H      2.089074    1.331531   -1.574307
H      0.894301   -4.370094   -1.096809
H     -5.702954   -2.976844    0.303300
H      1.473570    0.395664    0.526845
H      4.174366   -1.459570   -1.649096
H     -4.159274    0.666852    2.363447
H      2.855161    6.049631   -1.460747
