42

C     -1.505801   -2.099858   -0.835784
C      3.094974   -1.814946    0.283604
C      3.779738    0.602709    0.290096
C     -1.244280    0.832283   -1.605224
C     -2.990187    0.615052    1.291459
C     -3.038169   -0.768983    0.641218
C      1.347582    1.414306   -0.792278
C     -2.229495    1.604839    0.480941
C      0.201414    1.971537   -0.015709
C     -1.664082   -1.326796    0.423111
C      1.524000   -0.057345   -0.686414
C     -0.633679   -0.226405    0.594598
C      0.765423   -0.719321    0.402689
C      2.651888   -0.371432    0.307549
C     -0.968625    1.015411   -0.145056
O      1.691087   -0.159520    1.315693
H     -1.261687   -3.187962   -0.650355
H     -0.698348   -1.741262   -1.503610
H     -2.477531   -2.147453   -1.410263
H      2.893563   -2.267559    1.289647
H      2.651964   -2.394819   -0.532002
H      4.217588   -1.835920    0.178355
H      4.698371    0.049133    0.639834
H      4.036913    0.971259   -0.721481
H      3.606496    1.398135    1.025126
H     -2.093598    0.182643   -1.836679
H     -0.370976    0.531508   -2.201237
H     -1.530569    1.854656   -1.995080
H     -2.615492    0.494607    2.325935
H     -4.045660    0.944399    1.377792
H     -3.662809   -0.754552   -0.282018
H     -3.632742   -1.398268    1.367992
H      1.221792    1.760097   -1.859776
H      2.272266    1.963760   -0.447080
H     -2.883847    2.080234   -0.270456
H     -1.873822    2.426031    1.150776
H      0.471339    2.035471    1.077192
H     -0.082384    2.950136   -0.409463
H     -1.474167   -2.041343    1.278265
H      1.654972   -0.622383   -1.633315
H     -0.704762    0.040425    1.694375
H      0.901341   -1.802503    0.397030
