38

C      3.397700    1.397218   -0.568064
C      4.037070   -0.894094    0.389293
C     -1.402573    2.644907   -0.992692
C     -1.487920   -0.382041    1.543799
C     -3.406453   -0.550984   -0.508461
C     -2.956055    0.832733   -0.705925
C     -2.299002   -1.549416   -0.444099
C      0.690058    0.812912   -0.254958
C     -0.049741   -2.018265    0.423353
C      2.987218    0.067670    0.006745
C     -1.677279    1.181410   -0.789747
C      1.700189   -0.169076    0.138249
C     -0.606437    0.171933   -0.686635
C      1.299584   -1.452615    0.693266
C     -1.072600   -0.932110    0.196689
O      2.055239   -2.154123    1.424364
H      2.720618    2.182338   -0.187074
H      3.323231    1.285283   -1.669100
H      4.449389    1.612580   -0.323958
H      5.014048   -0.527169    0.020870
H      3.775322   -1.865858   -0.120218
H      4.093066   -1.023046    1.498520
H     -1.831456    3.194386   -0.122310
H     -0.340117    2.879641   -1.025778
H     -1.888198    2.942560   -1.942917
H     -2.349595   -0.969766    1.910859
H     -0.644638   -0.519636    2.259423
H     -1.736309    0.707079    1.481452
H     -4.054428   -0.671823    0.403569
H     -4.055855   -0.819592   -1.373389
H     -3.746601    1.594122   -0.784234
H     -2.634440   -2.416271    0.183564
H     -2.056506   -1.893891   -1.469484
H      0.481025    1.502829    0.581455
H      1.055123    1.397767   -1.148085
H      0.024870   -2.676145   -0.466960
H     -0.366903   -2.660534    1.269846
H     -0.440642   -0.260912   -1.706628
