65

C     -3.973039    2.483317    0.250305
C      2.246696   -2.751031    0.397331
C     -2.366210   -0.363657    1.720123
C      0.795971    0.662320    1.376509
C     -4.380615   -1.222486   -0.105580
C     -1.399724    1.886360   -0.272800
C      5.535689    0.826329    1.344927
C     -4.792440    0.198311   -0.066931
C     -2.945345   -1.522138   -0.314907
C     -0.013422    1.438595   -0.773998
C      6.902462    0.550402    1.278723
C      2.943747   -0.313417   -0.233798
C     -0.022063   -1.936105    0.592603
C      6.115402    0.465884   -0.733918
C     -4.220607    1.601174   -1.953698
C      0.818976   -2.714445   -1.544770
C      5.043919    0.771517    0.070523
C      3.611777    0.994297   -0.400441
C     -2.392317    0.785927   -0.547285
C      1.550057   -0.531856   -0.596932
C     -0.666718   -0.768909   -0.090824
C     -3.802576    1.185874   -0.555257
C      1.187311   -2.000490   -0.321818
C     -2.025843   -0.429265    0.276782
C      0.439039    0.251679    0.000331
O     -3.500677    2.290627   -2.655946
O      0.071822   -3.672298   -1.519528
O      3.091270    2.089789    0.218214
O      7.194590    0.343868    0.021377
H     -3.562242    3.290415   -0.369633
H     -3.582241    2.410160    1.260553
H     -5.074811    2.662396    0.340023
H      2.342701   -2.485322    1.482492
H      3.224110   -2.823699   -0.114938
H      1.879453   -3.822953    0.430160
H     -2.306270    0.612032    2.196610
H     -3.418133   -0.725577    1.935916
H     -1.765639   -1.172287    2.232520
H      0.702083    1.763727    1.449731
H      0.051173    0.328486    2.165148
H      1.779265    0.268951    1.717853
H     -4.938120   -1.781405   -0.921627
H     -4.789019   -1.718251    0.826732
H     -1.674157    2.747822   -0.915976
H     -1.371754    2.227489    0.759186
H      4.982647    1.040125    2.232299
H     -5.734769    0.289731   -0.692396
H     -5.164326    0.531676    0.942360
H     -2.728938   -1.607109   -1.405177
H     -2.714560   -2.505626    0.124848
H      0.602200    2.317191   -0.527536
H     -0.081877    1.266069   -1.864557
H      7.623923    0.503797    2.078243
H      3.229939   -0.801969    0.764711
H      3.550482   -0.995697   -0.931804
H      0.238856   -1.764383    1.639183
H     -0.612302   -2.874233    0.432031
H      6.048613    0.350958   -1.812552
H     -5.172748    1.299187   -2.375439
H      1.206868   -2.401919   -2.502010
H      3.734450    1.287601   -1.485809
H     -2.140309    0.458395   -1.607780
H      1.457856   -0.410964   -1.718558
H     -0.688738   -1.056134   -1.191296
H      3.819206    2.691147    0.567175
