38

C      3.330200    1.340978   -0.564775
C      3.884163   -0.839841    0.631584
C     -1.503862    2.556766   -1.122044
C     -1.096449   -1.610078   -1.274112
C     -2.921952    0.195739    1.460047
C     -2.839006    1.362991    0.502115
C     -2.582002   -1.032971    0.602302
C      0.588005    0.594109   -0.684507
C     -0.237200   -1.816430    0.992237
C      2.858492    0.031826    0.006837
C     -1.687673    1.446065   -0.155889
C      1.586268   -0.313255   -0.049589
C     -0.677873    0.419686    0.134620
C      1.155748   -1.581868    0.509191
C     -1.172638   -0.989872    0.104363
O      1.971661   -2.519341    0.593871
H      3.113027    2.185554    0.098350
H      4.414197    1.285948   -0.787195
H      2.813128    1.541183   -1.539277
H      4.849462   -0.271507    0.774794
H      3.541158   -1.162442    1.644518
H      4.074031   -1.717778   -0.011466
H     -0.849953    2.215634   -1.956618
H     -2.498973    2.780555   -1.562808
H     -1.117870    3.484761   -0.638462
H     -1.646745   -1.020847   -2.036231
H     -1.618139   -2.597935   -1.204786
H     -0.052100   -1.833839   -1.565241
H     -2.156332    0.246177    2.236793
H     -3.945801    0.058011    1.809516
H     -3.660571    2.052732    0.384339
H     -3.252093   -0.931003   -0.300360
H     -2.803739   -1.961917    1.143925
H      0.442277    0.383999   -1.746990
H      0.881319    1.671991   -0.567689
H     -0.310057   -1.388832    2.011727
H     -0.523945   -2.871955    0.924497
H     -0.348162    0.607004    1.202413
