42

C      2.583855   -1.944846   -0.531746
C      4.109926   -0.148605   -0.024530
C     -1.967757   -1.958404    1.366695
C     -1.049791    1.914100    0.797367
C     -2.988867    0.794627   -1.024355
C     -3.006785   -0.140175    0.130399
C      1.736233    1.337079    0.322698
C     -1.605045    1.221310   -1.451949
C      0.743230    1.469195   -0.789837
C      2.748751   -0.813580    0.086804
C     -1.823715   -1.104318    0.132981
C      1.782239   -0.059674    0.914958
C     -0.512542   -0.436603   -0.011235
C      0.445804   -0.665445    1.097229
C     -0.609945    1.040177   -0.319494
O      0.561007   -2.019525    1.352993
H      3.437759   -2.366311   -1.105108
H      1.657056   -2.518672   -0.537539
H      4.170967    0.470655   -0.942810
H      4.907183   -0.925152   -0.129457
H      4.353164    0.410739    0.901548
H     -3.077079   -2.137971    1.485461
H     -1.554692   -2.996321    1.212213
H     -1.637746   -1.489357    2.289843
H     -0.379352    2.826508    0.855863
H     -1.022262    1.481581    1.799601
H     -2.054231    2.400787    0.594844
H     -3.593007    1.695235   -0.796192
H     -3.467259    0.320912   -1.907904
H     -3.919252   -0.797922    0.008063
H     -3.140968    0.332909    1.121527
H      1.500114    2.096862    1.091054
H      2.721523    1.627378   -0.095355
H     -1.218891    0.636621   -2.311016
H     -1.593734    2.294798   -1.726482
H      1.062177    0.752303   -1.594269
H      0.763844    2.502179   -1.146526
H     -2.047426   -1.803805   -0.729751
H      2.257242    0.048258    1.910686
H     -0.021858   -0.867775   -0.940058
H     -0.038593   -0.251533    2.038027
H      0.788725   -2.228216    2.296622
