22

C      0.648219   -1.496162    0.032921
C     -0.694468   -1.277922    0.624472
C      1.382002   -0.506231   -0.459267
C     -1.357693   -0.042898    0.052005
C     -0.351029    1.075899    0.215463
C      2.707333   -0.800569   -1.031100
C     -0.864897    2.378225   -0.214443
O     -1.490758   -2.399394    0.415137
O     -1.753430   -0.226438   -1.251411
O      3.174275   -1.958019   -1.072076
O      3.463085    0.235749   -1.540583
O     -0.232200    3.074908   -1.048018
O     -2.056422    2.894892    0.271842
O      0.873176    0.768676   -0.416734
H      1.082165   -2.508501   -0.015083
H     -0.559222   -1.103831    1.728967
H     -2.227399    0.216616    0.682214
H     -0.123714    1.121188    1.316215
H     -1.165514   -2.851442   -0.418419
H     -2.641896   -0.705352   -1.219635
H      4.465839    0.231858   -1.547643
H     -2.277454    3.878749    0.303868
