42

C      4.161266    0.378160   -0.878811
C      3.294747   -0.708822    1.117342
C     -1.576591   -2.054254   -1.148502
C     -1.575925    1.191033   -1.365620
C     -3.208440   -0.008985    0.865342
C     -2.541053   -1.328944    1.047943
C      1.293459    1.548720    0.601173
C     -2.221282    1.115297    0.994955
C     -0.079603    2.079278    0.347511
C      3.107761    0.101413   -0.122668
C     -1.304216   -1.522493    0.233139
C      1.747202    0.574874   -0.474701
C     -0.399170   -0.330378    0.250440
C      0.765331   -0.543146   -0.676745
C     -1.077708    0.974769    0.017354
O      1.383459   -1.742290   -0.298902
H      5.133754    0.033779   -0.617557
H      4.029381    0.974519   -1.793249
H      4.030530   -0.164553    1.772523
H      3.744583   -1.698918    0.880000
H      2.345854   -0.853906    1.636988
H     -2.157808   -2.999349   -1.017332
H     -0.587163   -2.360506   -1.581619
H     -2.091579   -1.365718   -1.810091
H     -2.669814    0.938734   -1.471749
H     -0.981210    0.732560   -2.162311
H     -1.543827    2.303304   -1.565849
H     -3.835247    0.063145   -0.044334
H     -3.934120    0.111682    1.724056
H     -2.227719   -1.390185    2.131781
H     -3.241868   -2.156109    0.888683
H      1.999685    2.427239    0.514598
H      1.449735    1.154143    1.618261
H     -2.698846    2.101341    0.887075
H     -1.789376    1.065328    2.019698
H      0.008578    2.807928   -0.510875
H     -0.386317    2.677587    1.214930
H     -0.731593   -2.356544    0.743898
H      1.823670    1.165047   -1.410200
H      0.038069   -0.281887    1.291683
H      0.477526   -0.627064   -1.732553
H      2.025888   -2.025828   -1.007249
