46

C      3.913326    0.297188    1.342632
C     -3.232408   -1.194434    1.631165
C     -3.425361   -0.776893   -0.751457
C      2.856547    0.128043   -1.414136
C     -2.396954    2.114262    1.063652
C     -3.203052    1.078674    0.897783
C      1.696655    1.082002   -1.151323
C      1.611749   -1.897209   -0.715237
C     -1.109605    1.303368   -1.474191
C      2.762044   -0.593230    0.966875
C      2.854600   -1.062866   -0.486124
C     -0.944053    1.958528    0.829028
C      1.455199    0.152073    1.047199
C     -1.299623   -0.352356    0.430446
C      0.049568   -0.711803   -2.226837
C     -2.768000   -0.277242    0.482433
C     -0.615922    0.902901   -0.128464
C      0.761464    0.397321   -0.208380
C      0.452929   -0.981896   -0.833821
O     -0.169602    2.701018    1.435652
O      1.114526    0.473773    2.164809
O      0.454564   -1.438431   -3.145254
O     -0.777935    0.353055   -2.484355
O     -0.709906   -1.413235   -0.183417
H      4.619839    0.421893    0.518633
H      4.485545   -0.180967    2.184248
H      3.586727    1.305558    1.671935
H     -2.760609   -2.181359    1.570304
H     -4.345978   -1.265065    1.491651
H     -3.072305   -0.668490    2.590240
H     -3.989733   -0.018939   -1.327601
H     -4.193475   -1.578726   -0.538467
H     -2.666426   -1.297689   -1.374397
H      2.837977   -0.267077   -2.457564
H      3.834526    0.673907   -1.347171
H     -2.838003    3.057474    1.372219
H     -4.289515    1.173393    1.067218
H      1.290379    1.355598   -2.123342
H      2.139870    1.961594   -0.615777
H      1.476623   -2.533170    0.182556
H      1.797235   -2.518587   -1.620474
H     -2.172575    1.516842   -1.558963
H     -0.586753    2.279040   -1.705185
H      2.678249   -1.478021    1.613403
H      3.778900   -1.619978   -0.674212
H     -0.941248   -0.379842    1.506952
