48

C      5.657973   -1.318064   -0.468746
C      5.495599    0.770947    0.709533
C     -3.344356    2.179888    0.187833
C     -3.534408    0.041013    1.343943
C     -1.267475   -1.791345    0.498834
C     -2.798824   -0.964154   -1.784752
C      2.776592   -1.491097   -0.695309
C      0.553362    1.664626    0.994282
C      1.405396   -1.501215   -0.762316
C     -0.823610    1.154899    1.364184
C     -3.514581    0.170049   -1.158119
C     -1.303558   -0.869305   -1.774278
C      2.664652    0.575168    0.471773
C      4.878084   -0.391198    0.022456
C      3.426051   -0.451807   -0.076745
C      1.288047    0.522609    0.380432
C      0.620156   -0.499353   -0.229090
C     -1.454598    0.678535    0.083118
C     -2.945837    0.693668    0.118285
C     -0.850840   -0.626105   -0.365715
H      6.753298   -1.225670   -0.367436
H      5.355827   -2.211494   -0.989257
H      5.409549    1.675249    0.057063
H      6.577926    0.625176    0.883506
H      5.037098    0.961165    1.701676
H     -3.376817    2.455387    1.279937
H     -2.636325    2.802677   -0.368428
H     -4.391174    2.249233   -0.159831
H     -2.764746   -0.318018    2.058756
H     -4.168036    0.753655    1.950606
H     -4.263908   -0.777721    1.071100
H     -2.323598   -2.041705    0.450080
H     -0.860874   -1.677075    1.527988
H     -0.716386   -2.684807    0.079540
H     -3.154090   -1.969196   -1.408875
H     -3.100546   -0.984612   -2.875788
H      3.359015   -2.284982   -1.119609
H      0.390747    2.404030    0.159202
H      1.094463    2.106054    1.836246
H      0.923088   -2.352351   -1.266690
H     -1.445927    1.938819    1.837003
H     -0.677808    0.305009    2.061708
H     -3.554842    1.005628   -1.916332
H     -4.569029   -0.139158   -0.975571
H     -0.946592   -0.124499   -2.488295
H     -0.914212   -1.859703   -2.130197
H      3.186941    1.389026    0.956763
H     -1.150871    1.432125   -0.704468
