46

C      3.508529    1.910703   -0.021041
C     -3.772399   -0.247293   -0.301962
C     -2.885342    1.609431   -1.548392
C      3.008520   -1.152653   -0.086150
C     -1.943709    1.193063    1.910914
C     -2.692433    1.519671    0.876642
C      1.781930   -1.346319    0.817181
C      1.590372   -0.565076   -2.088195
C     -1.229232   -1.991511    0.469084
C      2.350804    1.199988   -0.651572
C      2.776180   -0.175961   -1.197906
C     -1.039086    0.033494    1.906863
C      1.274756    0.868785    0.322329
C     -1.258972    0.227885   -0.478324
C      0.445221   -2.450546   -1.138772
C     -2.614907    0.664337   -0.362536
C     -0.681619   -0.618358    0.668978
C      0.722328   -0.512012    0.224247
C      0.467841   -0.938025   -1.232779
O     -0.606907   -0.345001    3.025287
O      0.836207    1.617057    1.158112
O      1.061379   -3.164502   -1.946228
O     -0.318352   -2.926736   -0.081206
O     -0.797065   -0.464400   -1.568585
H      3.641729    2.879964   -0.562916
H      3.285193    2.087390    1.055255
H      4.443725    1.314302   -0.091608
H     -4.692668    0.423521   -0.310414
H     -3.939809   -0.878656   -1.208555
H     -3.901743   -0.805717    0.655569
H     -1.951771    2.000132   -1.973341
H     -3.472983    2.494811   -1.208722
H     -3.415420    1.062601   -2.362441
H      3.883973   -0.789661    0.482124
H      3.315079   -2.117565   -0.538111
H     -1.999379    1.806749    2.799956
H     -3.337037    2.379949    0.935150
H      1.620186   -2.383845    1.020229
H      2.066532   -0.871334    1.804322
H      1.340813    0.342980   -2.679812
H      1.923797   -1.396119   -2.725274
H     -2.082478   -2.036394   -0.267381
H     -1.651401   -2.339056    1.431289
H      1.876342    1.775215   -1.474350
H      3.705307   -0.077961   -1.756593
H     -0.642032    1.182674   -0.501109
