54

C     -5.180134    3.278544   -0.294323
C      3.057149    0.138540   -3.839123
C      3.823319    1.094135    3.365547
C     -2.754039   -1.258350   -0.068799
C     -3.257993    1.131316   -0.049878
C      1.907866   -0.031343   -1.119037
C      2.230012    0.304252    1.202313
C     -0.612567    1.835942    0.450403
C     -2.018479   -3.644408    0.009935
C      0.603445   -2.862918   -0.394129
C     -2.275556    0.136494    0.079675
C      1.404737   -0.097996    0.155574
C     -1.687587   -2.222351    0.386415
C     -0.974563    0.504193    0.326687
C     -0.412705   -1.751641   -0.330747
C     -1.583661    2.798377    0.321390
C     -2.890642    2.439105    0.073736
C      3.182610    0.412732   -1.399017
C      3.503795    0.752766    0.973066
C      0.044638   -0.574326    0.460276
C      3.973037    0.804736   -0.323731
O     -3.217817   -4.027651    0.594736
O      0.977489   -3.308765    0.867762
O     -1.196901    4.140191    0.449943
O      5.251755    1.253474   -0.569513
O     -3.805777    3.487505   -0.041493
O      3.725956    0.494440   -2.670121
O      4.286407    1.141152    2.039898
H     -5.571697    2.384527    0.208746
H     -5.333894    3.173852   -1.396151
H     -5.744307    4.189151    0.008208
H      3.627561    0.520865   -4.714379
H      2.062663    0.636829   -3.863639
H      2.982367   -0.959794   -3.979700
H      4.642044    1.381484    4.056322
H      3.016596    1.873045    3.468049
H      3.374213    0.109753    3.616111
H     -2.891838   -1.429527   -1.160642
H     -3.704226   -1.380569    0.486032
H     -4.288674    0.864967   -0.244432
H      1.308554   -0.329243   -1.968979
H      1.823068    0.248743    2.215193
H      0.432631    2.067851    0.645972
H     -1.235966   -4.341020    0.303811
H     -2.142875   -3.704753   -1.105937
H      0.176425   -3.680294   -1.011093
H      1.481165   -2.483003   -0.952817
H     -1.492155   -2.173703    1.475126
H     -0.708730   -1.493542   -1.366608
H      0.001705   -0.880073    1.545487
H     -3.111379   -4.846811    1.159629
H      1.260630   -2.504382    1.378729
H     -1.919982    4.841918    0.353207
H      5.852309    1.545585    0.186313
