64

C      8.323616    0.416880   -0.485114
C      0.328698   -3.763058    1.638807
C     -2.120243    1.048211   -3.081734
C      3.353362    1.145811   -2.318811
C      4.247367    2.276113   -2.284379
C      5.049454   -0.206790   -1.431082
C     -1.366957   -1.755647    0.972021
C     -2.228507   -0.161062   -0.574834
C     -6.951227    1.527122    4.408388
C     -6.612546    0.170311    2.455633
C     -2.602981    0.586583    2.719015
C      1.611756   -1.072350   -4.045997
C      3.774232   -0.050946   -1.895286
C     -2.269723   -0.758973    0.722480
C     -7.436929    0.767017    3.370813
C      5.509285    2.107243   -1.821195
C     -5.563411    1.705976    4.544000
C     -3.351112    1.232955    3.701595
C     -3.168007   -0.164414    1.684120
C      5.941897    0.852069   -1.380472
C     -5.244107    0.352387    2.598649
C     -0.452101   -2.165533    0.007128
C     -1.302101   -0.587069   -1.515360
C      1.530952   -0.962709   -2.521939
C     -4.707612    1.092426    3.604883
C      2.841779   -1.257693   -1.907221
C     -0.414824   -1.590479   -1.219029
O      2.510209   -0.252529   -4.653938
O     -8.840484    0.650769    3.328310
O      6.430989    3.186518   -1.764535
O     -5.131630    2.464797    5.573921
O     -2.818999    1.899062    4.610478
O      2.753532   -1.521517   -0.525481
O      7.145064    0.684301   -0.940171
O      0.444304   -3.200689    0.314280
O     -1.245125   -0.000400   -2.773979
O     -4.451881   -0.242831    1.679067
O      0.518423   -1.971774   -2.208373
H      9.103773    0.009413   -1.205447
H      8.841338    1.336716   -0.056339
H      8.404089   -0.330594    0.368249
H      0.441576   -2.988694    2.399931
H      1.072060   -4.552890    1.798598
H     -0.732567   -4.122433    1.737939
H     -1.803586    2.008333   -2.553525
H     -3.158295    0.884355   -2.743630
H     -2.156033    1.238617   -4.179418
H      2.394246    1.414856   -2.682921
H      3.897692    3.223954   -2.623921
H      5.358067   -1.181939   -1.086957
H     -1.402391   -2.215492    1.972321
H     -2.937751    0.597855   -0.772637
H     -7.603707    1.993005    5.115080
H     -7.011592   -0.425519    1.671526
H     -1.534049    0.704623    2.814892
H      1.835523   -2.166288   -4.291989
H      0.628797   -0.915691   -4.538015
H      1.143238   -0.016906   -2.194072
H      3.310515   -2.119678   -2.395538
H      2.150329    0.595645   -4.990747
H     -9.223387    0.091107    2.562952
H      6.190421    4.121788   -2.084212
H     -4.293556    2.800925    5.922392
H      3.050842   -2.465155   -0.404133
