64

C     -7.296906   -4.047650    0.262534
C      1.704856   -2.902084   -3.014656
C      0.273284    1.690425    2.322911
C     -4.757707   -0.061790    1.997637
C     -6.090925    0.148499    2.270946
C     -5.360610   -2.165005    0.983608
C      2.292793   -0.779092   -1.485046
C      1.790362    0.730643    0.238922
C      7.516082    4.463300   -0.298443
C      5.286202    4.020517    0.554765
C      4.956430    0.659443   -1.790067
C     -2.696575   -1.958406   -1.236573
C     -4.390890   -1.264960    1.328065
C      2.643044    0.352594   -0.755892
C      6.490831    4.679717    0.416303
C     -7.095104   -0.766236    1.919725
C      7.440412    3.235008   -1.195801
C      6.089310    1.388041   -1.855518
C      3.921613    1.014459   -0.968035
C     -6.669864   -1.931759    1.265609
C      5.175689    2.848558   -0.278662
C      1.107063   -1.477667   -1.179301
C      0.643636    0.071133    0.561955
C     -2.195515   -1.148823   -0.017850
C      6.203990    2.582556   -1.032797
C     -2.984386   -1.586625    1.160008
C      0.286914   -1.096746   -0.195676
O     -3.867454   -1.386630   -1.757956
O      6.579915    5.871991    1.294950
O     -8.428721   -0.614424    2.149115
O      8.381009    2.925192   -1.923698
O      7.073331    1.161401   -2.549563
O     -2.416822   -1.249283    2.428316
O     -7.675989   -2.836832    0.928189
O      0.796791   -2.627568   -1.968390
O     -0.146017    0.502530    1.583490
O      4.095565    2.131759   -0.228991
O     -0.877863   -1.679432    0.218694
H     -8.148603   -4.770314    0.214345
H     -6.804775   -3.874536   -0.689077
H     -6.528765   -4.531805    0.947427
H      2.669602   -3.303030   -2.679641
H      1.218759   -3.519034   -3.832392
H      1.927425   -1.911022   -3.556815
H     -0.347640    1.817222    3.186167
H      1.331727    1.545609    2.585176
H      0.168624    2.556437    1.630130
H     -3.989002    0.587091    2.279273
H     -6.366110    1.027485    2.781843
H     -5.137077   -3.125045    0.445547
H      2.920706   -1.107568   -2.278884
H      2.082041    1.660811    0.778404
H      8.430931    4.969295   -0.442210
H      4.509020    4.328174    1.174857
H      4.856294   -0.249022   -2.408489
H     -3.051270   -2.965543   -0.770927
H     -1.997675   -2.234663   -1.959462
H     -2.136901   -0.136572   -0.299189
H     -2.904275   -2.727346    1.155256
H     -3.636711   -0.408007   -1.836972
H      5.796734    6.042722    1.855281
H     -8.781214    0.248719    2.584159
H      9.199448    2.882753   -2.428760
H     -3.079067   -1.699562    3.082053
