36

C     -4.270090   -0.239893    0.014617
C     -3.952737    2.145578    0.430671
C      2.933302    0.738904   -0.585966
C      3.178861   -1.291948    0.587157
C      4.188125    0.588005   -1.137152
C      4.440462   -1.454530    0.039953
C     -1.980010    0.722812    0.244993
C      1.039824   -0.037031    0.888151
C     -3.402405    0.765422    0.739918
C      2.395049   -0.178094    0.278836
C      4.950795   -0.526688   -0.817377
C     -1.353582   -0.641007    0.449287
C      0.057199   -0.703358   -0.034982
O      6.227408   -0.717792   -1.354077
O     -1.503811   -1.103519    1.737193
O      0.158334   -0.232670   -1.321598
H     -5.322274   -0.084646    0.272146
H     -4.186175   -0.057211   -1.088844
H     -3.948105   -1.284286    0.192506
H     -4.231155    2.249145   -0.643879
H     -3.230294    2.940354    0.724241
H     -4.885396    2.345948    1.010259
H      2.358544    1.619248   -0.852744
H      2.812230   -2.042644    1.256916
H      4.580660    1.324668   -1.811308
H      5.065815   -2.327053    0.275602
H     -1.349779    1.482146    0.745862
H     -2.005379    0.980881   -0.832962
H      0.841077    1.047419    1.009512
H      1.085383   -0.578268    1.858449
H     -3.489081    0.566996    1.816937
H     -1.948741   -1.340997   -0.209563
H      0.344663   -1.791449   -0.065769
H      6.652423   -0.063063   -1.992566
H     -2.119549   -1.875203    1.810397
H     -0.131588   -0.946176   -1.949073
