44

C     -2.453033    1.934562   -1.271474
C     -2.840837   -0.493369   -1.355550
C      4.469256   -0.080832   -0.329727
C     -2.222213   -0.705364    1.372639
C     -1.400776   -1.857142    0.905639
C      0.208653    2.071817    0.634251
C      2.381236   -0.204286   -1.257613
C     -0.544878    0.299828   -1.248686
C     -1.861015    0.614727    0.683690
C     -0.057507   -1.561139    0.367823
C     -0.374770    0.769052    1.023942
C      1.644021    0.258512   -0.028748
C      1.519090    1.755836   -0.000250
C      1.007442   -1.987491    1.319949
C     -1.976808    0.565617   -0.784685
C      0.205218   -0.159787   -0.024929
O      2.321882    2.587708   -0.411314
O      1.895825   -2.825889    1.046571
O      1.035266   -1.435496    2.590824
O      3.655659    0.280301   -1.377005
H     -2.732538    2.595095   -0.423909
H     -1.748623    2.392419   -1.980748
H     -3.413572    1.802797   -1.853556
H     -3.459363   -0.059544   -2.198505
H     -2.245446   -1.303712   -1.872343
H     -3.569073   -0.942721   -0.668842
H      4.048369    0.318368    0.606765
H      5.495551    0.331362   -0.474454
H      4.562930   -1.190369   -0.217006
H     -1.968932   -0.519240    2.459020
H     -3.290052   -0.913900    1.349747
H     -1.967333   -2.515742    0.178893
H     -1.276551   -2.549489    1.793612
H     -0.365968    2.689948   -0.043022
H      0.453880    2.635998    1.572722
H      1.752410   -0.026705   -2.150560
H      2.459611   -1.318117   -1.175419
H     -0.127471    1.295841   -1.523539
H     -0.493762   -0.389901   -2.090791
H     -2.464683    1.389534    1.189896
H      0.111709   -2.189648   -0.561930
H     -0.170985    0.471763    2.048666
H      2.091670   -0.069533    0.909463
H      1.706513   -1.761670    3.270492
