18

C     -2.251648   -0.237253   -0.047420
C      0.077661    1.495771   -0.394968
C     -0.880898   -0.622304    0.401240
C      0.204934   -0.029957   -0.461779
C      1.534599   -0.399555    0.091053
N      1.618057   -1.160228    1.108710
O      2.694641    0.099106   -0.521059
H     -2.205486    0.053419   -1.117000
H     -2.973275   -1.081122    0.017966
H     -2.670062    0.578193    0.562499
H      0.211063    1.819895    0.648422
H     -0.905987    1.797662   -0.814554
H      0.893439    1.885959   -1.036029
H     -0.784726   -1.738488    0.314560
H     -0.730054   -0.369460    1.463238
H      0.057942   -0.382645   -1.482388
H      2.541590   -1.414909    1.489981
H      3.568210   -0.294082   -0.222472
