44

C     -2.871119    0.368795   -1.311786
C     -2.054367   -1.877669   -1.767987
C      4.398739    0.577801   -0.043546
C     -2.396145    0.018143    1.448558
C     -1.435121    1.094103    1.801851
C      0.449019   -2.133520    0.271242
C      2.303061    0.737547   -1.047942
C     -0.478957   -0.070608   -1.287987
C     -1.809290   -1.027648    0.498673
C     -0.381310    1.385393    0.758634
C     -0.342790   -1.038398    0.849889
C      1.590491   -0.022536    0.046898
C      1.664284   -1.485072   -0.314092
C      0.672881    2.210577    1.401619
C     -1.844501   -0.614227   -0.924380
C      0.128988    0.180895    0.058468
O      2.503176   -2.076120   -0.943209
O      0.963921    3.361765    0.984750
O      1.407407    1.765157    2.506537
O      3.632991    0.369600   -1.185363
H     -2.591921    0.774412   -2.328503
H     -3.859295   -0.136904   -1.490281
H     -3.027119    1.224661   -0.671962
H     -1.190458   -2.092626   -2.410794
H     -2.925585   -1.749104   -2.470106
H     -2.343745   -2.743088   -1.126259
H      5.428912    0.248082   -0.296735
H      4.385764    1.633309    0.297994
H      4.056224   -0.102538    0.786824
H     -3.392945    0.355906    1.133816
H     -2.585787   -0.569469    2.399330
H     -2.017264    2.046300    1.960939
H     -0.895935    0.927963    2.761423
H     -0.051520   -2.804126   -0.423938
H      0.844016   -2.764481    1.121540
H      2.291887    1.831021   -0.870577
H      1.817900    0.559491   -2.027046
H     -0.532001    0.837862   -1.908782
H      0.140882   -0.857667   -1.784814
H     -2.288432   -2.009367    0.661759
H     -0.873761    2.036803   -0.001644
H     -0.155140   -0.831749    1.920193
H      2.052788    0.079221    1.026042
H      1.611177    2.382109    3.291409
