57

C      4.374650   -1.314475    1.448162
C     -1.007058    2.033768   -1.809945
C      3.546071    3.588637    1.329651
C      3.075597    3.271672    0.074933
C      3.609678    2.609796    2.305277
C     -3.601429    1.831400    0.975603
C     -3.479354    0.381082    1.352463
C     -0.363472   -4.228756   -1.093321
C     -3.029229    2.168548   -0.350275
C      2.668741    1.966761   -0.197089
C      3.205247    1.311830    2.035985
C      0.849266   -4.103949   -0.483109
C     -1.103727   -3.077474   -1.387110
C     -2.227549   -0.268668    0.865740
C      2.564455   -2.697115    0.461987
C     -2.770056   -1.023616   -2.012959
C      3.062059   -1.451031    0.792009
C     -1.643193    1.642607   -0.500172
C      2.735273    1.000136    0.778808
C      1.337914   -2.844017   -0.159792
C     -0.647575   -1.813673   -1.079676
C     -1.473787   -0.594971   -1.404448
C      2.288615   -0.357375    0.477685
C      0.585716   -1.734728   -0.462454
N      1.097986   -0.536934   -0.128499
N     -1.603646    0.259075   -0.270847
O     -3.618734   -1.721703   -1.204888
Cl     0.683670    0.000000    0.000000
H      4.828383   -0.335890    1.241691
H      5.017172   -2.146359    1.044000
H      4.331123   -1.519369    2.556727
H     -0.961249    3.164061   -1.792332
H     -1.623884    1.787473   -2.678991
H      0.025541    1.700104   -1.824461
H      3.861197    4.603955    1.536901
H      2.998481    3.977302   -0.728179
H      3.978528    2.855673    3.290933
H     -3.178835    2.501112    1.756332
H     -4.704130    2.074561    0.943711
H     -4.389727   -0.158986    0.990140
H     -3.539846    0.331341    2.463703
H     -0.721766   -5.219543   -1.334646
H     -2.939455    3.297141   -0.379754
H     -3.664191    1.877745   -1.204584
H      2.304389    1.704182   -1.172059
H      3.279210    0.598336    2.842902
H      1.453651   -4.982892   -0.239252
H     -2.047488   -3.283351   -1.868360
H     -1.477840   -0.223713    1.714785
H     -2.418448   -1.358217    0.754868
H      3.154546   -3.578202    0.698803
H     -2.536400   -1.645353   -2.912901
H     -3.305632   -0.131217   -2.443171
H     -1.020199    2.145922    0.298043
H     -0.912433   -0.052584   -2.189114
H     -4.223156   -2.280059   -1.719452
H     -0.683670    0.000000    0.000000
