27

C      1.087198    1.918031    0.447530
C     -1.300095    1.720830   -0.027025
C      2.366847    1.406818    0.541927
C     -2.416742    0.752628   -0.186041
C      1.562196   -0.712123   -0.148543
C      0.051762    1.107259    0.054491
C      2.609516    0.085233    0.243114
C      0.299706   -0.201472   -0.240033
C     -2.009156   -0.635733    0.245980
C     -0.857319   -1.035776   -0.659883
N     -0.560704   -2.406625   -0.477204
N      3.914911   -0.482682    0.327365
O     -3.015893   -1.556668    0.129008
O      4.947495    0.338349    0.722543
O      4.111229   -1.662381    0.057014
H      0.928773    2.965578    0.690396
H     -1.468713    2.316167    0.912802
H     -1.249257    2.446179   -0.887333
H      3.215661    1.999450    0.845519
H     -3.352069    1.088434    0.306766
H     -2.657967    0.679959   -1.281551
H      1.760753   -1.778367   -0.389124
H     -1.684953   -0.553005    1.309448
H     -1.124310   -0.740159   -1.695912
H     -1.301177   -2.992667   -0.073608
H      0.045603   -2.845290   -1.171738
H     -3.903297   -1.221969    0.404088
