44

C     -0.695526    5.150779   -1.385895
C     -3.387813   -2.101104    0.247482
C      3.237529    0.408360    1.209835
C     -3.490169    0.149496   -0.786975
C     -2.771954   -3.078840    1.008048
C      4.584143    0.318352    1.495412
C     -2.412065    0.757727   -1.653973
C      3.516569   -1.265513   -0.413968
C     -0.985045   -1.564294    1.331089
C     -0.567819    3.678974   -1.462976
C     -2.811656   -0.877839    0.033449
C      2.656998   -0.397625    0.227772
C     -1.537522   -2.790924    1.559468
C     -1.588422   -0.570172    0.570317
C      5.407031   -0.571766    0.820800
C      4.849500   -1.369501   -0.146443
C     -1.282227    1.376216   -0.892457
C     -0.903459    0.740924    0.388210
C      1.240457   -0.315887   -0.085821
Cl     7.117925   -0.697568    1.171976
Cl     5.888562   -2.490977   -0.995770
N      0.506981    0.491117    0.529258
N     -0.910776   -3.786533    2.333673
O      0.353805    3.192723   -2.153283
O      0.744655   -1.146027   -1.068623
O     -1.504180   -4.995548    2.532007
O      0.194773   -3.560578    2.841359
O     -1.385278    2.789583   -0.833229
H     -0.636718    5.620053   -2.377882
H     -1.702474    5.373008   -0.962421
H      0.045899    5.580208   -0.665756
H     -4.363381   -2.329722   -0.187836
H      2.636925    1.106783    1.751797
H     -4.237080   -0.290907   -1.479957
H     -4.032933    0.896245   -0.180392
H     -3.215490   -4.044580    1.183224
H      5.061101    0.942447    2.263546
H     -2.089303   -0.038600   -2.358827
H     -2.861210    1.547251   -2.305080
H      3.094316   -1.902242   -1.179624
H     -0.010181   -1.343540    1.769898
H     -0.379965    1.226810   -1.572579
H     -1.182317    1.330223    1.292164
H     -0.192206   -1.146989   -1.411015
