39

C     -3.755930    0.483944   -0.614689
C      4.127530    0.492962    0.472101
C     -2.806512   -1.802363   -0.927843
C     -3.657845    1.754963   -0.078719
C      5.186167    1.024266   -0.254593
C     -2.289408   -2.710495    0.195678
C      2.793405    0.591105   -1.466219
C     -1.553484    1.167917    0.915887
C     -2.735872   -0.415228   -0.364361
C      2.909393    0.268800   -0.131159
C     -2.557497    2.089955    0.683433
C     -1.642518   -0.094240    0.388432
C      5.066362    1.345718   -1.590939
C      3.845025    1.119812   -2.191506
C     -0.813545   -2.446247    0.302535
C     -0.515106   -1.036727    0.684178
C      1.774045   -0.291844    0.614082
Cl     6.399194    2.016449   -2.512520
Cl     3.692395    1.526085   -3.882443
N      0.649065   -0.497164    0.051066
N     -2.439032    3.407285    1.248823
O     -0.259020   -3.309276    1.267400
O      1.914745   -0.608533    1.956928
O     -3.442500    4.322006    1.013824
O     -1.462254    3.709572    1.927427
H     -4.625955    0.204795   -1.222928
H      4.244450    0.245692    1.529286
H     -2.083438   -1.865887   -1.784485
H     -3.809394   -2.077240   -1.253415
H     -4.421267    2.504059   -0.237180
H      6.144682    1.197375    0.231879
H     -2.805028   -2.335846    1.127014
H     -2.520040   -3.759126    0.026000
H      1.835227    0.414847   -1.941293
H     -0.693945    1.458944    1.522277
H     -0.375055   -2.656610   -0.699999
H     -0.424207   -1.016086    1.810198
H     -0.387313   -2.952510    2.168618
H      1.494483   -1.471127    2.318154
