41

C      3.591895   -0.946689    0.274784
C     -3.048092   -2.681971   -0.421387
C     -2.093108   -3.632583   -0.686035
C     -2.736951   -1.342864   -0.223222
C     -0.777331   -3.245098   -0.760101
C      2.160816    2.392190    0.289931
C      2.975595    1.236939    0.758882
C     -0.259847    3.005275    0.343655
C     -3.846238    2.718375    0.421609
C      0.740341    2.050899    0.248843
C     -1.404080   -0.966578   -0.299065
C     -0.434271   -1.901109   -0.566770
C     -1.589083    2.682821    0.289496
C      0.338009    0.731351    0.094879
C     -1.009472    0.413701    0.035768
C      1.329778   -0.374048    0.131987
C      0.964126   -1.464332   -0.771900
C     -2.007821    1.357888    0.131392
N      2.676314    0.116469   -0.125614
O      1.820881   -2.574883   -0.683772
O     -2.686960    3.528930    0.373037
O     -3.378609    1.440646    0.122303
Cl     0.685586    0.000000    0.000000
H      3.137314   -1.647177    1.002185
H      4.487907   -0.525824    0.804237
H      3.917298   -1.560418   -0.606332
H     -4.075621   -2.964096   -0.361711
H     -2.351087   -4.687260   -0.839258
H     -3.492943   -0.624676   -0.014563
H      0.028562   -3.965499   -0.969301
H      2.370062    3.314366    0.885281
H      2.468168    2.599322   -0.776455
H      2.764606    0.994774    1.824370
H      4.068885    1.449700    0.621845
H      0.086607    4.041351    0.465587
H     -4.287404    2.717231    1.458496
H     -4.614244    3.109100   -0.249725
H      1.291768   -0.789863    1.200206
H      1.024889   -1.043321   -1.832540
H      1.849340   -2.963039   -1.591020
H     -0.685586    0.000000    0.000000
