31

C      4.241219    0.487269    0.617828
C      2.673690   -1.248668   -0.285573
C      1.398803   -1.644805   -0.630136
C     -1.538887    0.057465   -1.645117
C     -2.968025    0.854341    0.181449
C     -1.895302   -1.299779    0.402447
C     -0.560430    1.363802    0.241481
C      2.869395    0.015958    0.229981
C     -1.735140    1.167288   -0.645948
C     -1.053409   -1.143166   -0.819355
C      0.355054   -0.760991   -0.447911
C      1.811611    0.871567    0.399441
N     -3.123469   -0.561413    0.400868
N      0.547025    0.467122    0.053430
O      1.959090    2.038048    0.869998
H      4.651483    1.049760   -0.244702
H      4.191602    1.148826    1.499054
H      4.855290   -0.422687    0.791336
H      3.527312   -1.907556   -0.410036
H      1.214962   -2.634017   -1.038072
H     -2.522520   -0.198727   -2.077531
H     -0.773722    0.323246   -2.389392
H     -2.835706    1.322897    1.182507
H     -3.886933    1.247149   -0.302404
H     -2.164352   -2.374598    0.509156
H     -1.327205   -1.032797    1.311076
H     -0.898639    1.326202    1.323283
H     -0.141213    2.415678    0.166000
H     -1.978432    2.110479   -1.214793
H     -1.016374   -2.050194   -1.455419
H     -3.876779   -0.987699   -0.173278
