46

C     -4.403897   -1.580162    1.855981
C     -3.279785   -1.198926    1.299042
C      5.006808    1.412843   -0.338830
C      5.907212    0.487239    0.105787
C      3.641419    1.174210   -0.307841
C      5.435304   -0.699428    0.590882
C      1.430600   -1.476503    0.737103
C     -3.074645    0.817641   -1.837902
C      2.367438   -2.389854    1.179243
C     -2.123237    1.878781   -1.271738
C     -1.217207   -0.559175   -1.104684
C     -2.610094    1.184492    0.892562
C     -3.234965   -0.088344    0.362360
C     -2.723315   -0.438630   -1.022597
C      3.161981   -0.000465    0.170865
C      1.791043   -0.226273    0.205696
C      4.082449   -0.951293    0.628114
C     -0.639943    0.359830   -0.065966
C      0.801392    0.738891   -0.277377
N      3.671818   -2.115462    1.118258
N     -1.516186    1.516799   -0.039393
O      1.030846    1.353652   -1.477953
Cl     0.688232    0.000000    0.000000
H     -5.317472   -1.058681    1.614585
H     -4.483311   -2.402985    2.559764
H     -2.384567   -1.738946    1.556740
H      5.339957    2.350801   -0.724174
H      6.974892    0.665793    0.084844
H      2.986961    1.939430   -0.657083
H      6.136296   -1.456118    0.952784
H      0.393082   -1.762671    0.829601
H     -4.134524    1.025458   -1.591554
H     -2.930755    0.661732   -2.908991
H      2.051809   -3.332123    1.577302
H     -1.478541    2.288559   -2.051639
H     -2.817193    2.741347   -1.016611
H     -0.953107   -0.246727   -2.142351
H     -0.893758   -1.613076   -1.042224
H     -2.113940    1.037296    1.873303
H     -3.286640    2.032753    0.969126
H     -4.315965    0.214404    0.158671
H     -3.259755   -1.313582   -1.378300
H     -0.754863   -0.159534    0.895929
H      0.955312    1.606026    0.464544
H      0.781042    2.303485   -1.425877
H     -0.688232    0.000000    0.000000
