31

C      2.386865   -1.280392   -0.065291
C      2.924339    1.096591   -0.081716
C     -0.580679   -0.409421    1.681565
C     -1.537217    0.231881   -1.907110
C      1.916547    0.084134    0.398152
C      0.613834    0.365709   -0.290989
C      0.036963    1.684276    0.077126
C     -2.967946   -0.262798    0.061485
C     -0.499724   -0.554859    0.194343
C     -1.680422    0.226537   -0.394348
O      0.585565    2.767418    0.349572
O     -3.383789   -1.393415   -0.275121
O     -3.755272    0.523711    0.880355
O     -0.407276   -1.821859   -0.270133
O     -1.356946    1.523091    0.075005
H      1.956865   -2.105733    0.517728
H      2.077897   -1.369750   -1.147613
H      3.493160   -1.378958   -0.026881
H      2.735239    1.334566   -1.147302
H      3.926505    0.627765   -0.027481
H      2.967396    1.999919    0.555858
H     -1.604779   -0.651910    2.082046
H      0.207308   -0.927389    2.235714
H     -0.454866    0.690990    1.903099
H     -1.066037    1.155606   -2.263175
H     -2.553058    0.156555   -2.336337
H     -0.918013   -0.645513   -2.222614
H      1.811267    0.113125    1.503750
H      0.748803    0.256721   -1.369428
H     -4.774043    0.408737    0.956503
H     -0.848485   -2.445335    0.353236
