65

C      0.681477    3.180454   -1.826795
C      1.260167    2.265982    1.429845
C     -1.821681   -2.051070    2.560543
C     -4.345712    0.026345   -0.727802
C      6.879733   -2.088681   -2.677649
C      6.931628   -2.167427   -1.306755
C      5.753714   -1.574169   -3.269829
C      5.859657   -1.731841   -0.546548
C      4.677844   -1.137900   -2.485768
C     -0.937507    3.043112   -0.058059
C     -2.621525    2.862948    1.531818
C      0.443173   -1.717763   -0.835072
C     -5.019734    1.656901    4.031717
C     -1.902352   -4.205598   -2.165160
C      0.100907    2.216783   -0.781272
C      1.195616    1.679601    0.017993
C      4.720101   -1.212457   -1.115242
C     -1.800121    2.144181    0.751116
C      0.149864   -0.572786   -0.176583
C     -3.506778    2.228953    2.401670
C     -0.555338   -2.597830   -1.204413
C     -1.874110    0.750571    0.849854
C     -1.193574   -0.318776    0.113010
C      1.386064    0.192193    0.078003
C     -3.549224    0.822562    2.475480
C     -1.894905   -2.308515   -0.899886
C     -2.714965    0.066365    1.687082
C     -2.231538   -1.153428   -0.234196
C      3.630566   -0.771973   -0.260186
O      3.714953   -0.858205    1.007581
O     -2.652238   -1.307089    1.692736
O     -3.498166   -0.739677    0.104497
O     -4.446601    2.721769    3.297990
O     -0.569963   -3.817884   -1.866531
O     -4.517192    0.507888    3.417866
O     -2.702309   -3.345252   -1.375505
O      2.447169   -0.238066   -0.747576
H      0.896438    4.124401   -1.272160
H     -0.054299    3.421588   -2.609484
H      1.573870    2.713417   -2.242076
H      0.360440    2.112448    2.015956
H      2.183427    1.825943    1.890693
H      1.503385    3.348892    1.282333
H     -2.280388   -2.984960    2.901567
H     -1.508039   -1.370786    3.381426
H     -0.898659   -2.304491    2.008581
H     -5.410591   -0.171610   -0.479888
H     -4.080690    1.076026   -0.627119
H     -4.174569   -0.233947   -1.798148
H      7.711683   -2.424891   -3.315775
H      7.821243   -2.573120   -0.855460
H      5.734430   -1.521291   -4.347019
H      5.913989   -1.799896    0.548738
H      3.813399   -0.741113   -2.982902
H     -1.549774    3.645780   -0.742105
H     -0.401270    3.756757    0.609208
H     -2.580803    3.945834    1.470698
H      1.487575   -1.916135   -1.060485
H     -6.126596    1.692966    4.041313
H     -4.705547    1.750405    5.101134
H     -2.078713   -5.281272   -1.890241
H     -2.168170   -4.014483   -3.224313
H     -0.385058    1.426385   -1.385950
H      2.171118    2.055834   -0.439799
H      1.755074   -0.008903    1.133303
