72

C      6.982342    1.637648    0.852093
C      3.395137   -0.886604    2.194027
C     -4.244288   -1.412292   -0.611689
C      0.568054   -2.063697   -0.402936
C     -3.681933    1.023691   -1.945242
C     -2.200932    0.952538   -1.881171
C      6.341322   -0.631553    0.027207
C      5.033062   -1.247534   -0.467332
C     -5.714366    1.471650   -0.557025
C      0.720317    0.416422   -1.631447
C     -1.914053   -1.202854    1.247973
C     -4.609844   -0.240864    1.487763
C      5.120600    1.433915   -0.711953
C      6.465442    0.812549   -0.330864
C      2.864890   -0.970012    0.772538
C     -4.294462    1.100091   -0.539749
C     -1.659194   -0.068507   -0.919494
C     -2.444054   -0.113985    0.384500
C     -0.282618    0.299278   -0.555052
C     -6.667065    0.564106    0.118164
C     -6.090958   -0.227699    1.227252
C      2.011793    0.547227   -0.813624
C     -0.459053   -0.904252    1.512988
C      1.692646   -0.050365    0.558196
C     -3.927480   -0.158627    0.163363
C      0.400183   -0.755653    0.331887
C      3.874173   -0.353930   -0.205859
O     -7.735005    1.304171    0.682861
O     -6.871567   -0.867960    1.919019
O     -0.015480   -0.791467    2.642743
O      4.198489    0.911490    0.223916
O      3.038231   -0.198113   -1.336495
H      7.942616    1.220953    1.192570
H      7.089052    2.689406    0.497425
H      6.263075    1.648104    1.678585
H      3.541921   -1.889699    2.641960
H      4.347533   -0.321957    2.180058
H      2.699603   -0.338039    2.866541
H     -5.331376   -1.630270   -0.664526
H     -3.766494   -1.473432   -1.587881
H     -3.816339   -2.263539   -0.003220
H      0.774833   -2.833907    0.397164
H      1.397164   -2.024300   -1.127517
H     -0.326276   -2.407633   -0.922495
H     -4.170680    0.268686   -2.567851
H     -3.947728    2.018764   -2.412236
H     -1.755091    1.964661   -1.703150
H     -1.829975    0.658503   -2.898153
H      6.459920   -0.756917    1.127028
H      7.201561   -1.167777   -0.431661
H      5.168183   -1.527563   -1.515836
H      4.911148   -2.195367    0.119149
H     -6.039406    1.563909   -1.636106
H     -5.885019    2.513328   -0.151473
H      0.747306   -0.477334   -2.286986
H      0.589341    1.294633   -2.294408
H     -2.392099   -1.294198    2.217982
H     -1.898111   -2.175308    0.682549
H     -4.359713    0.650024    2.072592
H     -4.417324   -1.199283    2.016138
H      5.139358    2.526811   -0.538019
H      4.822434    1.155495   -1.740408
H      7.156291    1.021967   -1.164214
H      2.665725   -2.018090    0.555135
H     -3.712626    1.931699   -0.038410
H     -1.780143   -1.057735   -1.386955
H     -2.222609    0.860608    0.897958
H     -0.296519    1.235699    0.032084
H     -7.179911   -0.102703   -0.637165
H      2.322862    1.598309   -0.728751
H      1.589914    0.718900    1.328314
H     -7.596734    2.285785    0.498024
