72

C     -7.400710   -0.338769   -1.416624
C     -3.269726    1.270552    2.613344
C      4.316392   -1.385666    0.654358
C     -0.674412   -1.532839    1.177595
C      3.306336   -0.967678   -2.204634
C      1.926761   -0.357670   -2.070290
C     -5.586946   -1.507997   -0.209762
C     -4.713720   -1.224646    1.000366
C      5.647191   -0.614471   -1.646310
C     -0.902255   -0.207984   -1.278657
C      2.069197    0.018118    1.716419
C      4.787686    0.999174    0.704178
C     -5.869541    0.893994    0.104031
C     -5.972126   -0.226400   -0.906225
C     -2.742750    0.160646    1.696432
C      4.250928   -0.090497   -1.408219
C      1.527945   -0.470550   -0.617514
C      2.500810    0.297317    0.286984
C      0.225050    0.183482   -0.424695
C      6.685918    0.183096   -0.905899
C      6.105527    1.141623    0.050269
C     -2.079754    0.475045   -0.565982
C      0.653637    0.431190    1.914517
C     -1.613698    0.688510    0.880509
C      3.919730   -0.058036    0.044029
C     -0.345486   -0.076716    0.978661
C     -3.831772   -0.052587    0.642385
O      7.476512    0.917814   -1.819357
O      6.758554    2.138544    0.332309
O      0.398623    1.170065    2.844241
O     -4.530366    1.106472    0.404928
O     -3.132092   -0.403755   -0.512973
H     -7.563355   -1.353228   -1.864072
H     -8.141246   -0.194782   -0.592098
H     -7.615061    0.391532   -2.211647
H     -3.089915    2.218309    2.072380
H     -2.782021    1.239431    3.606708
H     -4.363276    1.174030    2.733218
H      4.085463   -1.399904    1.750470
H      5.425496   -1.487263    0.584123
H      3.881911   -2.251583    0.122244
H      0.082186   -2.225789    0.815331
H     -1.628995   -1.773722    0.681817
H     -0.728024   -1.686822    2.295504
H      3.662982   -0.958640   -3.253186
H      3.267072   -1.980364   -1.803765
H      2.005649    0.725113   -2.297897
H      1.166142   -0.863251   -2.663409
H     -5.071546   -2.142967   -0.950220
H     -6.482708   -2.070090    0.131653
H     -5.339384   -0.955499    1.859031
H     -4.039697   -2.079709    1.224158
H      5.837520   -0.516062   -2.740336
H      5.683317   -1.698913   -1.428142
H     -0.825851    0.317762   -2.264094
H     -1.055497   -1.283620   -1.383182
H      2.749664    0.474256    2.446758
H      2.067552   -1.108015    1.807049
H      4.868269    0.850817    1.799148
H      4.263803    1.989672    0.572048
H     -6.263209    1.818169   -0.372428
H     -6.490331    0.692280    0.989945
H     -5.328689    0.003845   -1.765247
H     -2.538200   -0.747466    2.260225
H      4.182324    0.934832   -1.851823
H      1.610846   -1.518018   -0.332111
H      2.358971    1.389768    0.132487
H      0.363058    1.289158   -0.473811
H      7.383918   -0.520052   -0.410054
H     -2.314619    1.446487   -1.001201
H     -1.424277    1.781474    1.065087
H      8.248318    1.306458   -1.349078
