42

C     -1.050409    1.728958   -1.414588
C      0.293944    1.989692   -1.344153
C     -1.594136    0.577151   -0.854868
C      1.097844    1.075454   -0.700810
C      8.125534    0.107659    0.730941
C      7.295306   -0.892714    1.243958
C     -1.375990   -1.560043    0.366429
C      6.165750    1.174506   -0.209054
C     -5.600566   -0.604623   -0.443940
C     -0.812879   -0.333862   -0.217076
C      7.500914    1.098856    0.021431
C      5.325124    0.175112    0.301952
C     -4.941348   -0.552708    0.933652
C      0.549790   -0.064691   -0.148619
C      5.933691   -0.825661    1.013773
C     -2.835239   -1.639797    0.371741
C     -5.284230    0.760061    1.581714
C      3.305053   -0.731582    0.589212
Cl     8.571585    2.353157   -0.623065
N     -3.530936   -0.685050    0.833612
N      4.021496    0.068257    0.187844
O     -3.483840   -2.759820   -0.125178
O     -4.332751    1.498420    1.925113
O     -6.564843    1.189895    1.814668
S     -7.402472   -0.456959   -0.315756
S      1.555866   -1.253688    0.687620
S      4.568286   -1.848090    1.465357
H     -1.690578    2.441832   -1.917868
H      0.731889    2.881881   -1.775602
H     -2.656531    0.455070   -0.963730
H      2.159414    1.300603   -0.656188
H      9.189430    0.070522    0.901163
H      7.665516   -1.721561    1.813957
H     -0.946514   -1.622995    1.409998
H     -0.899559   -2.439734   -0.162585
H      5.808201    2.016910   -0.786132
H     -5.180700    0.226027   -1.013797
H     -5.387979   -1.578189   -0.914915
H     -5.422859   -1.333838    1.546015
H     -4.256767   -3.203941    0.397451
H     -6.834420    2.149722    1.603468
H     -7.779087    0.769799   -0.915628
