43

C      2.834141   -1.007444    1.182407
C      2.403258   -1.040202   -1.159560
C     -2.056392    1.918135    0.212477
C     -2.204350   -0.189354   -1.971012
C      1.210359    2.048534   -0.274075
C      2.232091    1.072922    0.088293
C      0.029703    1.596660   -1.045700
C     -2.379991   -0.774370    0.473314
C     -1.541187   -0.371922    1.684491
C     -0.310568    0.334531    1.095445
C      0.527023   -0.750313    0.479902
C     -0.310358   -1.235461   -0.682450
C      1.908455   -0.359230    0.126208
C     -0.957062    0.971138   -0.117192
C     -1.536490   -0.332440   -0.685592
O     -1.101217   -1.509509    2.377226
O     -0.793620   -2.533405   -0.498307
H      2.292684   -0.999158    2.169526
H      3.021720   -2.062915    0.948286
H      3.771838   -0.447048    1.218908
H      2.085662   -0.541036   -2.060684
H      3.527701   -0.923898   -1.123182
H      2.217356   -2.127705   -1.122044
H     -2.684270    2.030888   -0.720405
H     -1.664802    2.927963    0.416518
H     -2.735407    1.594978    1.000041
H     -3.227005   -0.637638   -1.965201
H     -2.234743    0.855883   -2.375860
H     -1.639241   -0.771205   -2.753115
H      0.810185    2.577594    0.644353
H      1.682569    2.897852   -0.856090
H      2.665269    1.386453    1.088458
H      3.124205    1.197024   -0.599951
H      0.230215    0.963810   -1.912574
H     -0.447575    2.527945   -1.482282
H     -2.509270   -1.878912    0.458135
H     -3.378952   -0.307897    0.496332
H     -2.082099    0.254305    2.390800
H      0.177973    1.000298    1.771000
H      0.498696   -1.594403    1.235114
H      0.215029   -1.227121   -1.641913
H     -1.450560   -1.540649    3.300674
H     -0.220978   -2.993675    0.189282
