76

C     -5.392314    3.896554   -1.300279
C      3.427496   -2.410936   -0.583659
C     -4.221858   -1.381819    2.357850
C     -5.332205    1.395990   -1.059130
C      0.044624   -1.340774    2.257334
C     -1.362634   -1.700797    1.915299
C     -5.395181    0.713673    0.256840
C      4.698868   -1.109829   -3.000646
C      3.366133   -0.778961   -2.415558
C      5.782159   -0.709106   -0.783072
C      0.771378   -0.769671   -0.821691
C      3.079578    0.312008    1.714975
C     -3.701304    2.860494    0.146978
C     -2.239893    1.124117   -0.382349
C     -4.531161    2.650778   -1.091531
C      5.858994   -0.485230   -2.289390
C      0.621964   -0.209826    1.462782
C     -0.047369    0.071816    0.172101
C      2.038296   -0.564806    1.116453
C     -1.485620   -0.115794    0.080815
C     -2.071772   -0.481980    1.437068
C      2.102110   -0.295164   -0.394541
C      4.474823   -0.180175   -0.318603
C      4.423106   -0.138257    1.180121
C     -4.137684    0.721922    1.047802
C      3.298291   -0.951638   -0.920715
C     -3.553021   -0.688838    1.213675
N     -3.137666    1.633033    0.602656
O      7.035196   -1.039788   -2.752134
O      5.431315    0.687418    1.624300
O     -3.760356   -1.426570    0.060077
H     -6.206388    3.959391   -0.557035
H     -5.775573    3.948681   -2.342271
H     -4.701197    4.766216   -1.191102
H      2.432821   -2.892535   -0.691596
H      4.094128   -2.882211   -1.335206
H      3.875422   -2.604930    0.403135
H     -4.014776   -0.836697    3.302135
H     -3.896326   -2.431890    2.398135
H     -5.307388   -1.384108    2.172608
H     -6.388206    1.672923   -1.351278
H     -5.027221    0.657268   -1.855896
H      0.077749   -1.120559    3.364294
H      0.663474   -2.271727    2.151170
H     -1.366349   -2.490884    1.107839
H     -1.872317   -2.124150    2.805424
H     -6.271974    1.123949    0.832202
H     -5.672689   -0.359509    0.070607
H      4.808937   -2.210735   -3.123890
H      4.704695   -0.688992   -4.049181
H      2.622007   -1.484767   -2.861799
H      3.065791    0.235386   -2.717216
H      5.912860   -1.787560   -0.553306
H      6.584128   -0.095424   -0.341286
H      0.659608   -1.846252   -0.560108
H      0.495601   -0.542175   -1.863133
H      3.125245    0.288111    2.809650
H      2.872890    1.363642    1.358669
H     -2.949015    3.636300   -0.038358
H     -4.415965    3.230932    0.939189
H     -2.692609    0.916317   -1.364465
H     -1.458349    1.899791   -0.559169
H     -3.850731    2.615820   -1.991931
H      5.827096    0.601267   -2.473072
H      0.593812    0.694138    2.127983
H      0.204081    1.137164   -0.110018
H      2.283884   -1.615333    1.341731
H     -1.723948   -0.967565   -0.592490
H     -1.932543    0.322147    2.174576
H      2.168979    0.793222   -0.546678
H      4.374513    0.866449   -0.680504
H      4.606423   -1.148877    1.630489
H     -4.411529    1.027093    2.102027
H      7.113728   -0.818976   -3.713727
H      5.207737    1.632945    1.352488
H     -4.524806   -2.071140    0.145469
