43

C     -2.032293    0.856714    1.736996
C     -3.186597   -0.092326   -0.160652
C      2.554960    0.365949    1.031119
C      2.099507   -0.248423   -2.022134
C     -0.244519    2.195988   -0.774146
C     -1.587443    1.665460   -0.604645
C      0.862064    1.761794    0.069935
C      1.578072   -1.873912   -0.176249
C      1.026068   -1.717750    1.234639
C      0.259281   -0.429220    1.139510
C     -0.861874   -0.628443    0.148973
C     -0.235702   -0.746141   -1.217739
C     -1.823432    0.493836    0.267820
C      1.225011    0.379822    0.255691
C      1.225793   -0.556678   -0.894085
O      0.113969   -2.726815    1.545673
O     -0.397937   -2.058662   -1.722136
H     -1.364173    1.632576    2.096067
H     -2.034910   -0.069562    2.329831
H     -3.075287    1.283173    1.821240
H     -3.320407   -1.101027    0.272336
H     -3.213118   -0.209089   -1.269868
H     -4.005307    0.576982    0.136770
H      3.091894    1.351378    0.897243
H      2.343735    0.306318    2.112647
H      3.241942   -0.394286    0.676510
H      3.032281    0.225335   -1.665184
H      2.409356   -1.206223   -2.522485
H      1.583793    0.414166   -2.738742
H     -0.308492    3.324966   -0.612468
H      0.111708    2.176059   -1.852292
H     -1.989556    1.398275   -1.632013
H     -2.340790    2.445089   -0.263986
H      1.785906    2.311150   -0.301642
H      0.725303    2.227674    1.094058
H      2.630080   -2.112156   -0.220307
H      1.030228   -2.733530   -0.634469
H      1.852702   -1.673889    1.964306
H      0.001634    0.052256    2.056174
H     -1.343683   -1.595268    0.394066
H     -0.638070   -0.088571   -1.970915
H      0.246685   -3.095648    2.448036
H     -1.028383   -2.087344   -2.473482
