18

C     -0.826633   -0.155089   -0.706698
C      0.531595    0.461099   -0.918103
C     -1.455921    0.222129    0.554714
C      1.552424   -0.112690   -0.008150
N     -1.764959   -0.683798    1.416593
N      2.144880    0.688417    0.811809
O     -0.669838   -1.537038   -0.813786
O      0.565955    1.818443   -0.846633
O     -1.745020    1.536180    0.880782
O      1.871805   -1.473725   -0.027283
H     -1.495732    0.139239   -1.548796
H      0.847781    0.141102   -1.954919
H     -1.576569   -1.690431    1.237505
H      2.880703    0.335399    1.483304
H     -1.469337   -1.958153   -1.221151
H      0.309167    2.217530   -0.004304
H     -2.468042    1.790914    1.544891
H      2.767742   -1.739530    0.367461
