40

C      4.447245    1.306101   -0.093434
C     -3.365655    0.556444   -0.971440
C     -2.766057    0.766868    1.391702
C     -0.564187    1.743409   -0.695388
C      4.103037    0.041713   -0.833272
C      3.493377   -0.959093    0.133740
C     -1.762555   -1.773516   -1.040781
C     -0.847879   -0.639846   -1.451133
C     -1.107607   -1.363583    1.261792
C     -2.279903   -1.340801    0.279963
C     -0.190932   -0.228572    0.826754
C      2.257542   -0.392943    0.737159
C     -2.380196    0.181501    0.091084
C     -0.945872    0.385729   -0.310018
O      2.329216    0.433100    1.693874
O      1.018642   -0.752504    0.271152
H      3.697754    2.097912   -0.306971
H      4.511997    1.077519    1.007725
H      5.462348    1.694666   -0.379956
H     -4.264937    1.049924   -0.517670
H     -3.735734   -0.272339   -1.578361
H     -2.951500    1.331123   -1.674620
H     -3.436624    1.661726    1.303344
H     -1.952709    1.029099    2.070749
H     -3.404751    0.011474    1.937823
H     -0.107411    1.725374   -1.716435
H      0.210997    2.207297   -0.037371
H     -1.466373    2.414804   -0.792236
H      5.020469   -0.401420   -1.273817
H      3.370253    0.247343   -1.650704
H      4.226733   -1.179939    0.943319
H      3.203666   -1.888381   -0.395244
H     -1.208633   -2.748606   -1.003275
H     -2.534092   -1.907090   -1.821902
H      0.187527   -1.040305   -1.484355
H     -1.133661   -0.193987   -2.419822
H     -1.453849   -1.215538    2.304282
H     -0.577589   -2.325883    1.163252
H     -3.177418   -1.790556    0.647890
H      0.075321    0.451779    1.626845
