35

C     -4.083372    0.605006    0.550105
C      4.282948    1.931954    0.760657
C      0.791543   -2.268835    0.420381
C      1.735552   -1.329116   -1.637028
C     -1.668484    1.220264    0.786299
C     -0.473004    0.342996    0.970770
C     -2.346478   -0.723253   -0.597495
C     -2.717643    0.656274   -0.116508
C      3.185365    1.209519    0.058886
C      0.095845   -0.022820   -0.383516
C     -0.981583   -0.647087   -1.168775
C      1.248077   -1.001513   -0.249211
O      2.737076    1.652515   -0.961848
O     -0.763995   -1.091704   -2.260740
S      2.577186   -0.297627    0.770954
H     -4.756158    0.043701   -0.120829
H     -3.971608    0.076632    1.506646
H     -4.397174    1.650076    0.724434
H      3.858290    2.911356    1.099251
H      5.116008    2.165403    0.082821
H      4.691978    1.339915    1.605427
H      0.836752   -2.157403    1.526707
H     -0.232542   -2.560215    0.172162
H      1.456633   -3.134677    0.160163
H      1.499199   -0.512081   -2.331911
H      2.834278   -1.481090   -1.636850
H      1.230816   -2.274902   -1.971566
H     -2.125903    1.489978    1.760658
H     -1.301896    2.189539    0.356501
H      0.270426    0.891428    1.571313
H     -0.793080   -0.558111    1.531590
H     -2.348514   -1.431228    0.258039
H     -3.100388   -1.079721   -1.330966
H     -2.824067    1.288810   -1.041719
H      0.437918    0.906020   -0.864797
