35

C     -4.285237   -0.218909    0.424215
C      4.709806    0.063554   -0.007628
C      0.750990   -0.121039   -2.255406
C      0.203895   -1.803629   -0.585510
C     -2.297387    1.644891    0.428644
C     -3.103347   -0.649444    0.023707
C      0.264084    0.280548    1.488084
C     -1.132245   -0.242511    1.426724
C      3.325323    0.634812   -0.081142
C      0.914130    0.444981    0.140623
C      0.103466   -0.341347   -0.880545
C     -1.882371    0.185076    0.192679
O      3.160666    1.841715   -0.426161
O      2.210278   -0.110584    0.215562
O     -1.164196    0.145984   -0.957871
H     -4.338006    0.765818    0.881880
H     -5.153243   -0.823270    0.299050
H      5.418142    0.894703    0.120899
H      4.792205   -0.669088    0.815819
H      4.958297   -0.485316   -0.941052
H      1.841049   -0.230739   -2.213478
H      0.334967   -0.909595   -2.915804
H      0.417307    0.853206   -2.689056
H      0.760013   -1.972264    0.380566
H     -0.751276   -2.332194   -0.530847
H      0.822124   -2.362622   -1.346668
H     -1.387133    2.260282    0.310578
H     -3.089398    1.942151   -0.268487
H     -2.606428    1.694234    1.495084
H     -3.054307   -1.629879   -0.431369
H      0.855561   -0.392287    2.159111
H      0.289250    1.289174    1.991518
H     -1.203623   -1.347272    1.610432
H     -1.688872    0.211958    2.299717
H      1.005513    1.488901   -0.173868
