34

C     -2.653459    0.417690   -0.883201
C     -1.846243    1.682282   -0.675104
C      3.142326   -0.931984   -0.065013
C      1.957600   -0.015959    0.004334
C      0.696020   -0.846541    0.088572
C     -0.319080   -0.876525    2.213422
C      0.686345    1.682973   -1.210464
C     -1.736658   -0.733083   -0.523730
C     -0.547935   -0.030431    0.079992
N     -0.671487   -1.252805    3.418587
N      0.707743    2.821758   -1.862700
N      1.917104    0.939008   -1.063960
N      0.692299   -1.468657    1.408996
N     -0.891957    0.201451    1.490335
N     -0.501149    1.187650   -0.662150
O      4.294145   -0.158563   -0.000075
O     -1.431143   -1.452957   -1.661342
O     -2.414076   -1.524331    0.416375
H     -2.918522    0.397747   -1.973373
H     -3.587409    0.409994   -0.272190
H     -2.031143    2.430330   -1.470072
H     -2.095042    2.075425    0.336000
H      3.121569   -1.574708    0.835138
H      3.144385   -1.574078   -0.962819
H      2.045764    0.558152    0.961600
H      0.699159   -1.678648   -0.645833
H     -1.411966   -0.783352    3.950518
H     -0.196409    3.329580   -1.948314
H      2.690099    1.128239   -1.722246
H      1.313479   -2.231399    1.757085
H     -1.438529    0.978183    1.918678
H      4.091185    0.823642   -0.011859
H     -1.129183   -2.366467   -1.469783
H     -3.377832   -1.563616    0.204595
