35

C      4.356352    0.790895    0.174172
C     -4.773023    1.472093    1.196647
C     -1.445731   -1.738711    0.231417
C     -1.665888   -0.395186   -1.793252
C      2.304043   -0.115188    1.140515
C      0.787337    0.097907    1.121128
C      2.604376   -0.293273   -1.263472
C      2.892238    0.591709   -0.042106
C     -3.844330    0.595360    0.456127
C      0.287731    0.003633   -0.282094
C      1.228816   -0.815383   -1.050224
C     -1.154581   -0.386825   -0.386013
O     -4.282932   -0.269048   -0.260305
O      0.934393   -1.893258   -1.515868
S     -2.102471    0.818360    0.623582
H      4.584613    0.661440    1.245679
H      4.672858    1.829715   -0.107779
H      4.956126    0.089293   -0.464726
H     -5.737496    1.633489    0.668767
H     -4.251165    2.429889    1.407094
H     -4.986818    1.019262    2.206234
H     -2.503198   -1.991922   -0.070027
H     -0.814473   -2.549028   -0.124749
H     -1.489811   -1.668373    1.348441
H     -1.793690    0.626183   -2.212118
H     -1.016591   -1.025854   -2.433842
H     -2.659580   -0.908089   -1.803297
H      2.461825   -1.220048    0.996904
H      2.739612    0.228237    2.116392
H      0.373771   -0.695037    1.790184
H      0.616555    1.114057    1.530815
H      3.358881   -1.065582   -1.398910
H      2.638031    0.404044   -2.137980
H      2.372998    1.580481   -0.192033
H      0.351222    1.044759   -0.715304
