55

C      1.550528    0.988218   -1.598590
C      1.127189   -1.217287   -2.488336
C     -4.219369   -3.636395    0.419325
C     -2.458261    4.724661   -0.127021
C     -4.534208   -2.321321    0.615096
C     -3.070006   -3.919215   -0.251705
C     -3.333027    3.736263    0.266868
C     -1.111659    4.431045   -0.197204
C     -3.689700   -1.327002    0.133289
C     -2.223215   -2.926060   -0.735205
C     -2.844513    2.475501    0.582109
C     -0.662573    3.167188    0.122925
C      5.993449   -0.152157    0.609419
C      5.078804   -0.448570   -0.372684
C      4.328354   -0.260392    2.308805
C     -1.665093   -0.503322   -1.053333
C     -0.950149    0.798524    0.849315
C     -2.527178   -1.578301   -0.544158
C     -1.531093    2.146449    0.524777
C      5.638933   -0.054151    1.943823
C      3.371498   -0.561157    1.364684
C      3.764892   -0.650979    0.022507
C      0.569466   -0.817395   -0.137557
C      0.979603   -0.872483    1.250781
C      1.554463   -0.492859   -1.187701
F      6.591086    0.249241    2.879163
N      2.085467   -0.776750    1.927933
N     -0.616872   -0.000729   -0.271159
O     -0.114850   -1.097919    2.122907
O      2.872318   -0.946133   -0.975567
H      2.107105    1.132935   -2.535735
H      0.548473    1.375206   -1.747196
H      2.050115    1.501973   -0.742273
H      0.574715   -2.133355   -2.266283
H      2.067446   -1.563983   -3.001520
H      0.671704   -0.528420   -3.217232
H     -4.894839   -4.417092    0.802187
H     -2.830960    5.712036   -0.374550
H     -5.450610   -2.095400    1.145715
H     -2.764316   -4.946808   -0.438560
H     -4.382368    3.955474    0.323754
H     -0.381116    5.189993   -0.507484
H     -4.032938   -0.331048    0.327343
H     -1.332061   -3.214042   -1.278125
H     -3.564261    1.769019    0.894776
H      0.396217    2.993938    0.064225
H      7.025242    0.003565    0.274428
H      5.325510   -0.529015   -1.415433
H      4.046645   -0.187858    3.356090
H     -2.319223    0.423254   -1.284986
H     -1.350200   -0.796854   -2.078326
H     -0.004232    1.053639    1.395826
H     -1.722324    0.354547    1.528298
H      0.245003   -1.898418   -0.366978
H      0.016989   -0.979797    3.138534
