55

C     -7.588703   -1.417622   -2.146336
C      7.663602   -1.935160   -0.173493
C     -6.449397   -0.425478   -1.958160
C     -5.869597   -0.580715   -0.564461
C     -4.733078    0.441928   -0.441430
C     -4.158265    0.284420    0.947397
C     -3.040180    1.241886    1.194271
C     -1.884616    1.074286    0.249995
C     -0.769037    2.043271    0.506906
C     -0.214251    1.882676    1.897232
C      0.326982    0.499213    2.139482
C      1.441722    0.140655    1.187049
C      2.609152    1.061818    1.283996
C      3.693424    0.691471    0.330656
C      6.339646   -1.458368    0.367434
C      4.215933   -0.704672    0.585821
C      5.279555   -1.095526   -0.327295
C      5.288802   -1.122056   -1.795470
C      6.024506   -1.321170    1.777551
O      6.271312   -1.479290   -2.485392
O      4.142096   -0.728518   -2.466500
O      6.773687   -1.568444    2.773816
O      4.736200   -0.863250    1.867097
H     -7.252223   -2.353858   -2.632740
H     -8.340719   -0.944584   -2.822837
H     -8.042405   -1.608426   -1.133958
H      7.522441   -2.712619   -0.952829
H      8.185392   -2.442744    0.660645
H      8.285546   -1.115436   -0.531168
H     -6.880182    0.599489   -2.003528
H     -5.664680   -0.530151   -2.710024
H     -5.426956   -1.570526   -0.416408
H     -6.641350   -0.343017    0.186559
H     -3.985974    0.249332   -1.230927
H     -5.169797    1.449386   -0.533328
H     -4.942697    0.486743    1.710884
H     -3.730478   -0.750752    1.085553
H     -3.384907    2.302993    1.097677
H     -2.719729    1.087316    2.260852
H     -1.501667    0.012896    0.276499
H     -2.266803    1.181282   -0.810695
H      0.054528    1.888102   -0.231337
H     -1.173952    3.077464    0.437860
H      0.554277    2.667158    2.100690
H     -1.030872    2.090056    2.614344
H     -0.488018   -0.235577    2.008445
H      0.656708    0.408113    3.194271
H      1.691845   -0.925500    1.430502
H      1.075678    0.142664    0.148821
H      2.231520    2.078230    0.965741
H      3.052699    1.111471    2.299782
H      4.500048    1.439880    0.317346
H      3.260558    0.676502   -0.700374
H      3.352233   -1.409515    0.390717
H      4.120439   -0.667727   -3.482265
