39

C      3.425994    0.706935    1.479420
C      3.694120   -0.395604   -0.638928
C     -2.019585   -3.585840    0.135314
C     -1.888037    3.444951   -0.270660
C     -2.126691    0.169332    0.529941
C     -2.405484   -1.250519    0.484428
C     -1.960630    0.891715   -0.766899
C     -0.162404   -1.798094   -0.315851
C      0.118911    2.159288   -0.592446
C      0.725344   -1.136209    0.643682
C      0.925295    0.933509   -0.863460
C      2.829847    0.182267    0.426968
C     -1.525767   -2.146529    0.110813
C     -1.195049    2.156315   -0.549565
C      1.343853    0.184112    0.339432
H      4.522740    0.727253    1.586023
H      2.818672    1.139352    2.279504
H      3.148603   -1.109591   -1.281114
H      3.997015    0.454154   -1.308440
H      4.576358   -0.850188   -0.143218
H     -1.694349   -4.091425    1.047658
H     -1.505022   -4.075586   -0.728647
H     -3.089865   -3.646026   -0.054705
H     -1.747736    4.106780   -1.149776
H     -1.425786    3.978590    0.590576
H     -2.954722    3.301857   -0.015907
H     -1.335279    0.507533    1.232822
H     -3.039162    0.652722    1.043827
H     -3.432406   -1.606036    0.784135
H     -1.624691    0.309802   -1.618232
H     -2.993855    1.242480   -1.090506
H     -0.126785   -1.454862   -1.370152
H      0.318865   -2.838835   -0.493539
H      0.654077    3.111069   -0.417845
H      1.629214   -1.796736    0.898976
H      0.217084   -1.179053    1.647000
H      1.851563    1.331173   -1.389845
H      0.424735    0.413276   -1.676671
H      1.031015    0.856668    1.201939
