39

C     -2.119198   -2.084078    1.700289
C     -3.739437   -1.503623   -0.059203
C      0.026299    2.688751   -1.544178
C      3.385812   -0.154957   -1.172752
C      1.836544    1.145719    1.730281
C      1.286497    1.774635    0.471930
C      2.521751   -0.149579    1.287873
C     -1.203626    1.330715    0.014175
C      1.195629   -1.002356   -0.546803
C     -1.498410    0.182815   -0.879268
C      0.066636   -1.348451    0.361836
C     -2.359697   -1.617386    0.499155
C      0.206563    1.909148   -0.206627
C      2.329895   -0.450640   -0.140105
C     -1.237344   -1.176720   -0.355830
H     -2.993012   -2.396147    2.296136
H     -1.138450   -2.182178    2.133869
H     -4.218065   -0.565678    0.246152
H     -4.295169   -2.395649    0.328751
H     -3.679002   -1.650172   -1.155483
H      0.347289    3.690320   -1.613528
H      0.246419    2.034599   -2.407671
H     -1.118480    2.821618   -1.673811
H      3.843007   -1.124536   -1.465803
H      4.141854    0.535413   -0.740895
H      2.898013    0.298554   -2.049917
H      2.602210    1.843614    2.229776
H      1.203239    0.889068    2.546201
H      2.346759    2.195435    0.138493
H      2.276313   -0.996884    1.956786
H      3.607322    0.036850    1.431597
H     -1.973131    2.119137   -0.328116
H     -1.557040    1.170460    1.003340
H      1.046240   -1.228702   -1.594366
H     -0.853857    0.312662   -1.799540
H     -2.541593    0.178093   -1.296338
H      0.177650   -2.431539    0.584965
H      0.106615   -0.823793    1.320006
H     -1.173045   -1.874537   -1.251375
