39

C     -1.721983    2.125394   -0.085971
C     -3.520294    0.792099    0.875990
C     -2.976797    0.477350   -1.478412
C     -1.188710   -1.899541   -0.974323
C     -1.667989   -1.318759    1.971382
C      2.935354    0.452180    1.049150
C      2.464528   -1.004737    0.944262
C      2.175412   -0.068543   -1.163617
C      3.268956    0.684283   -0.430217
C      1.387738   -0.813423   -0.103876
C     -2.367555    0.745587   -0.105567
N      6.719122    1.079110   -0.422972
N      4.560641    0.008056   -0.622417
N      5.614971    0.598444   -0.699726
O      0.444840    0.047862    0.409932
Si    -1.141488   -0.577451    0.355807
H     -1.765719    2.515585    0.957487
H     -2.312184    2.824136   -0.726210
H     -0.673934    2.055194   -0.424841
H     -4.213488    1.581742    0.566084
H     -4.032260   -0.199785    0.941270
H     -3.107547    1.052049    1.882478
H     -3.687044    1.292602   -1.668701
H     -2.221833    0.399151   -2.265672
H     -3.590788   -0.452846   -1.374832
H     -2.261445   -2.087077   -1.184287
H     -0.714077   -1.548268   -1.913292
H     -0.758516   -2.831756   -0.601257
H     -1.773225   -2.432226    1.911630
H     -0.978434   -1.027196    2.814557
H     -2.675514   -0.954596    2.298488
H      2.104843    1.122793    1.289648
H      3.813531    0.550348    1.684682
H      3.296600   -1.575450    0.526359
H      2.073177   -1.372426    1.900485
H      1.533080    0.622442   -1.745196
H      2.661611   -0.836589   -1.813769
H      3.318956    1.741076   -0.684755
H      0.977464   -1.766812   -0.468499
