55

C      0.465237   -3.598726    1.789023
C     -5.755478    0.846276   -2.229059
C      1.528483   -1.896520   -0.844003
C     -1.870020   -3.415955    1.024039
C     -2.963820   -2.727578    0.528248
C      4.188029    2.107504   -0.789956
C      4.185986    2.600580   -2.099927
C     -1.680353   -0.766656    0.478774
C      6.441243    2.014271   -2.358168
C      5.407291    1.040918    1.126772
C     -0.667780   -2.781541    1.251804
C     -5.022200    1.428239   -1.056255
C      1.648338   -1.007208    0.340908
C     -2.896361   -1.379004    0.241686
C      5.328724    1.559506   -0.253475
C      5.297412    2.563481   -2.897111
C      6.452060    1.531272   -1.082916
C     -0.576887   -1.436557    0.973348
C      1.984717    0.632485    2.461811
C     -5.954757    1.888593    0.028223
C     -4.038915   -0.641209   -0.279912
C      3.046347    0.423695    1.577957
C      0.769126    0.015193    2.268508
Br     2.223665    1.780773    3.945374
F      5.237610    3.052964   -4.150827
F      7.576195    0.990159   -0.549577
N     -5.910921    1.408859    1.225911
N     -3.969841    0.613361   -0.544869
N      2.831412   -0.400104    0.537911
N      0.643196   -0.790451    1.204559
O     -6.914560    2.861272   -0.214983
O     -5.236042   -1.295268   -0.500532
O     -0.206870    0.201177    3.072673
O      4.231372    1.080696    1.848359
H      1.169382   -3.009671    2.378990
H      0.049909   -4.373005    2.479184
H      0.959240   -4.189419    0.970765
H     -5.684898    1.493121   -3.149905
H     -5.387887   -0.141935   -2.545205
H     -6.849709    0.768046   -1.994893
H      0.499622   -2.083773   -1.151700
H      2.125797   -2.835383   -0.703756
H      2.027934   -1.363116   -1.685143
H     -1.950904   -4.493125    1.244604
H     -3.916641   -3.241452    0.350280
H      3.285949    2.176311   -0.207327
H      3.262899    3.026712   -2.489283
H     -1.645679    0.302476    0.245702
H      7.330027    1.984916   -2.995961
H      6.136067    1.720665    1.661433
H      5.871611    0.028322    1.125249
H     -4.538657    2.380169   -1.427403
H     -5.202683    0.676272    1.446244
H     -7.219986    3.532939    0.485233
H     -6.143032   -0.863570   -0.387306
