50

C      5.459746    0.280824   -0.360713
C      2.017317   -1.226032   -2.649195
C      1.413837   -0.105711    2.028674
C      4.406664   -0.088807   -1.101303
C     -3.995004   -0.064647   -1.903454
C     -2.848510   -0.353271   -1.160231
C     -4.847860    0.927197   -1.510751
C     -2.162912   -0.827935    2.986121
C      3.534569    0.937783   -1.751969
C     -2.299951   -1.847752    3.873742
C     -3.414202    1.329268    0.346319
C      2.129858    1.250866    0.086531
C      0.230978   -0.606554   -1.018934
C     -1.021045   -2.300163    1.623655
C      1.744873   -0.529530   -1.352333
C      0.983353    0.735131    0.838830
C     -2.508358    0.327315   -0.008546
C     -1.519296   -1.018805    1.831718
C     -4.545302    1.632676   -0.363501
C     -1.301252    0.046368    0.781229
N      2.158059    0.851141   -1.302659
N     -0.054705    0.043067    0.151477
O     -5.427564    2.637769    0.017947
S     -1.496675   -3.189872    3.100790
H      6.093783   -0.456169    0.112085
H      5.723245    1.325990   -0.202097
H      2.608857   -0.662705   -3.374595
H      1.016651   -1.533659   -3.083919
H      2.493025   -2.226117   -2.422375
H      1.630056   -1.149108    1.757858
H      0.610123   -0.034352    2.796602
H      2.298975    0.383829    2.491106
H      4.218501   -1.134032   -1.206682
H     -4.220090   -0.637191   -2.815275
H     -2.258362   -1.149157   -1.542786
H     -5.755150    1.178926   -2.070176
H     -2.611411    0.160442    3.264221
H      3.918282    1.946240   -1.401007
H      3.645280    0.948530   -2.851621
H     -2.796510   -1.849664    4.855628
H     -3.202781    1.895440    1.237849
H      2.232833    2.365320    0.101070
H      3.076440    0.905452    0.610203
H     -0.216963   -0.049501   -1.906566
H     -0.000587   -1.661062   -1.181374
H     -0.451922   -2.732574    0.765914
H      2.275504   -1.049464   -0.530306
H      0.478399    1.638261    1.316548
H     -1.218892    1.002601    1.456775
H     -6.223905    2.457838    0.639478
