50

C      5.909328    0.934069   -0.091520
C      2.000385    1.607278   -2.045301
C      0.972493   -1.818238    1.477764
C      4.619176    1.024744    0.242791
C     -3.302035    1.893454    1.727465
C     -2.393646    0.965937    1.245617
C     -4.206002    2.472921    0.855548
C     -2.171483   -2.352815    0.820035
C      3.765553   -0.181364    0.289990
C     -2.702225   -3.607801    0.980516
C     -3.310771    1.220695   -0.947295
C      1.930242   -1.346807   -0.726378
C      0.476438    0.977039   -0.172747
C     -2.422917   -2.543234   -1.485780
C      1.874194    1.050193   -0.613308
C      0.673841   -1.420021    0.051739
C     -2.398813    0.629513   -0.091447
C     -2.008002   -1.775433   -0.353414
C     -4.229960    2.150949   -0.494749
C     -1.428829   -0.402902   -0.608924
N      2.669873   -0.130006   -0.601698
N     -0.149078   -0.278139    0.019734
O     -5.147181    2.740242   -1.374015
S     -3.041377   -4.095747   -0.765843
H      6.572881    1.767976   -0.142117
H      6.317757   -0.039987   -0.325505
H      3.115616    1.737431   -2.175769
H      1.626792    0.864413   -2.748283
H      1.543482    2.596957   -2.091615
H      0.784556   -1.000115    2.200158
H      0.440177   -2.747149    1.786602
H      2.058129   -2.097991    1.598747
H      4.260665    2.010331    0.477989
H     -3.272741    2.136451    2.788393
H     -1.671114    0.507065    1.906377
H     -4.920350    3.193415    1.207666
H     -1.880875   -1.841582    1.816590
H      3.440211   -0.250078    1.373001
H      4.364995   -1.081212    0.061048
H     -2.902468   -4.210268    1.805654
H     -3.288606    0.932624   -2.009103
H      1.729702   -1.542947   -1.797200
H      2.606920   -2.176923   -0.387047
H     -0.149109    1.520066   -0.948435
H      0.301474    1.590740    0.751668
H     -2.400344   -2.317309   -2.505138
H      2.405044    1.823045   -0.001370
H      0.070708   -2.268546   -0.396792
H     -1.336530   -0.233211   -1.685857
H     -5.796177    3.412276   -0.997854
