62

C     -6.891552    0.606981    0.051452
C     -3.602598   -0.873024   -1.074611
C     -0.162572    2.399893   -0.390416
C     -5.952863    1.183857   -0.692383
C     -0.150870   -3.080086    2.978582
C     -0.177862   -1.908019    2.221230
C     -0.245101   -4.314416    2.393546
C      1.783671    0.311736    0.790139
C      1.627051   -0.660824   -1.412904
C      3.083298    0.676221    0.532419
C      2.942654   -0.284345   -1.655962
C     -4.902871    2.050899   -0.092622
C     -0.394649   -3.217112    0.280920
C     -2.500359    2.188110    0.128881
C     -2.412298   -0.141902    1.022943
C      7.376065    1.130614   -2.121109
C     -3.530199    0.086261    0.080916
C     -1.267650    1.411898   -0.288854
C      1.074781   -0.347581   -0.176894
C      3.627383    0.365467   -0.690351
C     -0.300333   -1.985191    0.867178
C     -0.369634   -4.398483    1.021515
C      7.129595    1.576962   -0.833833
C     -0.324329   -0.769689    0.049212
C      5.025374    0.782551   -0.907611
C      8.191014    2.284942   -0.058191
N      5.919755    1.319251   -0.398093
N     -3.627528    1.444036   -0.402394
N     -1.103960    0.319427    0.609321
O     -0.465585   -5.648602    0.423470
O      9.309926    2.480973   -0.561979
O      7.967010    2.737271    1.223093
S      5.808537    0.371689   -2.577937
H     -6.866720    0.790367    1.118768
H     -7.662336   -0.021079   -0.336046
H     -3.259724   -0.438483   -2.027767
H     -4.662251   -1.203247   -1.275816
H     -3.075164   -1.816801   -0.804450
H      0.654895    2.171891   -1.064258
H     -0.613616    3.358761   -0.806373
H      0.253653    2.722820    0.583994
H     -6.000341    0.982581   -1.765779
H     -0.054075   -3.060281    4.063437
H     -0.101190   -1.002651    2.788880
H     -0.226999   -5.241742    2.955033
H      1.334887    0.542746    1.726584
H      1.064107   -1.173809   -2.155162
H      3.686739    1.206619    1.281977
H      3.359411   -0.540470   -2.635948
H     -5.009554    3.054079   -0.547260
H     -5.079381    2.075963    1.004412
H     -0.493706   -3.345440   -0.789920
H     -2.479443    3.227595   -0.252671
H     -2.603387    2.195390    1.229432
H     -2.396018   -1.254089    1.234109
H     -2.647833    0.325664    1.998114
H      8.269750    1.192963   -2.750128
H     -4.475461   -0.093800    0.676586
H     -1.459993    0.963703   -1.302057
H     -0.816568   -1.031260   -0.937931
H      0.381885   -6.145870    0.122000
H      8.495133    3.458116    1.675986
