23

C      0.963980   -1.597413   -1.115016
C     -2.989002    1.206640    0.281311
C     -1.911410    1.557177   -0.531203
C     -2.859626    0.101960    1.084486
C     -0.738750    0.823500   -0.539507
C     -1.676859   -0.627139    1.067550
C      0.643677   -1.075614    0.263088
C     -0.618988   -0.283688    0.270438
C      1.747036   -0.215170    0.780218
N      2.769574   -0.035944    0.034307
O      1.695932    0.377826    2.010481
O      3.857162    0.712491    0.346440
H      2.054851   -1.542702   -1.295709
H      0.424464   -0.956037   -1.849349
H      0.573514   -2.636954   -1.230718
H     -3.899556    1.816179    0.256469
H     -1.971922    2.420389   -1.179077
H     -3.685105   -0.188450    1.724097
H      0.113338    1.077603   -1.163902
H     -1.569023   -1.498134    1.697875
H      0.520447   -1.923584    0.990415
H      2.216058    1.211318    2.253816
H      4.340209    1.275747   -0.366347
