42

C      5.001896   -2.137957   -0.229189
C     -0.259599    1.064789    0.418624
C      0.490170   -0.164153    0.073021
C     -1.725912    1.059382    0.288394
C      1.976083    0.176767    0.298419
C      4.923392    0.234110    0.542539
C     -3.637258   -1.734641   -0.583848
C     -4.580922   -1.014160    0.353830
C     -2.494359    0.070438    1.094086
C      2.825916   -0.994973   -0.020783
C      5.289263    1.116892   -0.569669
C     -3.950540    0.203983    0.860088
C     -5.535836    0.695579   -0.679719
N     -5.686081   -0.557142   -0.458570
N     -4.360524    1.215141   -0.068768
N      4.231102   -0.959966    0.098112
O      2.276108   -2.051200   -0.409108
O      5.016879    0.837016   -1.760887
O      5.957250    2.300936   -0.311564
O     -6.440325    1.439808   -1.438502
S     -2.102991   -1.580761    0.381261
H      5.949541   -2.181338    0.351606
H      5.254411   -2.065893   -1.311163
H      4.417892   -3.070028   -0.043243
H      0.042325    1.389564    1.455661
H      0.145279    1.883458   -0.247330
H      0.310535   -1.032988    0.739223
H      0.357672   -0.506743   -0.963949
H     -2.001942    0.966363   -0.803156
H     -2.096486    2.082587    0.569459
H      2.111702    0.543879    1.332955
H      2.214012    1.018273   -0.384450
H      5.841352   -0.017494    1.130529
H      4.248401    0.744888    1.277765
H     -3.584203   -1.201275   -1.543422
H     -3.966265   -2.783714   -0.673904
H     -4.930717   -1.728041    1.129163
H     -2.223999    0.113276    2.153294
H     -4.427025    0.470907    1.844192
H     -3.937506    2.133718   -0.287651
H      6.480352    2.829064   -0.983553
H     -7.419043    1.191647   -1.521974
