49

C      3.149227   -0.278527   -2.871020
C     -4.410940    2.154412    0.393716
C     -2.123655   -1.044761   -1.513338
C      4.100342   -2.644484   -0.561775
C      2.187207   -1.340655   -2.370385
C     -3.363908    1.296714    1.192104
C     -3.022270   -0.338745   -0.552133
C      0.548574    0.218689    3.544997
C      1.554219   -0.642016    3.133450
C     -0.291569    0.777302    2.595208
C      2.750387   -1.682712    1.310182
C     -1.019259    2.576590    0.072604
C      2.909899   -1.837712   -0.042589
C      1.674455   -0.908388    1.772413
C     -0.222774    0.551484    1.246334
C      2.029771   -1.246626   -0.897938
C     -1.122094    1.040580    0.199999
C      0.821386   -0.336459    0.888507
N      1.002021   -0.506776   -0.435094
N     -2.487504    0.663135    0.256380
O      0.388704    2.781626    0.000222
Cl     0.689944    0.000000    0.000000
H      3.672035   -0.656727   -3.764944
H      2.558780    0.603625   -3.246465
H      3.904626    0.013796   -2.161603
H     -5.416432    1.982255    0.783812
H     -4.256756    1.982815   -0.679740
H     -4.160971    3.232674    0.536453
H     -2.732112   -1.919877   -1.952553
H     -1.780601   -0.518500   -2.379883
H     -1.294447   -1.624264   -1.003876
H      5.030378   -2.334849   -0.051042
H      3.925305   -3.688206   -0.265537
H      4.158365   -2.596261   -1.650183
H      1.201748   -1.155297   -2.895888
H      2.464953   -2.349582   -2.663655
H     -3.966841    0.551382    1.717041
H     -2.954088    2.006606    1.882635
H     -3.877557    0.117644   -1.195252
H     -3.634038   -1.155050   -0.034755
H      0.410418    0.455766    4.600781
H      2.234141   -1.102670    3.824629
H     -1.059518    1.444491    2.973220
H      3.407388   -2.124254    2.015566
H     -1.393270    2.835131   -0.902415
H     -1.447200    3.158309    0.857900
H     -0.740206    0.666807   -0.771405
H      0.693679    2.921566   -0.934686
H     -0.689944    0.000000    0.000000
