42

C     -4.384695   -0.524265   -0.694712
C      0.726780   -0.994801    0.645452
C     -0.511751   -0.483428    1.331718
C      1.040064   -0.225869   -0.622958
C     -1.745256   -0.580321    0.470761
C     -5.297672    0.470857    1.408154
C      4.528690   -0.585222   -2.624633
C      4.709434   -0.763912   -1.176551
C      2.268008   -0.798895   -1.207492
C     -2.903360   -0.062495    1.226175
C     -5.407708    1.916968    1.159157
C      3.501439   -0.754506   -0.373944
C      4.845637    1.023543    0.190875
N      5.517970    0.342646   -0.641697
N      3.533382    0.503675    0.340636
N     -4.194060   -0.042354    0.637588
O     -2.711099    0.362146    2.412170
O     -6.303031    2.587753    1.724909
O     -4.549918    2.599519    0.307573
O      5.373723    2.144848    0.858397
S      2.828650    0.038828   -2.732831
H     -5.446415   -0.654812   -0.961291
H     -3.806493   -1.463594   -0.845063
H     -3.985638    0.247819   -1.407542
H      0.502364   -2.077052    0.403931
H      1.586262   -1.052212    1.337500
H     -0.684179   -1.042874    2.267855
H     -0.360046    0.596212    1.547645
H      0.157567   -0.329889   -1.320495
H      1.164492    0.844508   -0.364284
H     -1.927990   -1.628175    0.139357
H     -1.604809    0.097000   -0.418422
H     -6.218544   -0.074087    1.113429
H     -5.086592    0.248820    2.483318
H      4.538901   -1.559351   -3.156380
H      5.259678    0.132402   -3.041341
H      5.277694   -1.715831   -0.944656
H      2.073531   -1.856296   -1.504816
H      3.441367   -1.549432    0.407891
H      2.755022    0.975162    0.880006
H     -4.854220    3.403029   -0.237241
H      6.352821    2.283937    0.981850
