30

C      2.986830    1.333708    0.339801
C      1.747274    1.609853   -0.165028
C      3.246790    0.054477    0.772512
C     -1.032465   -0.233957   -1.599907
C     -2.280492   -0.840438    0.419162
C     -1.538529    1.372240    0.269187
C      0.031248   -1.678611    0.121630
C     -1.219276   -1.315986   -0.573933
C     -0.586327    1.003328   -0.817612
C      0.740831    0.636173   -0.254348
C      2.248473   -0.875126    0.674283
N     -1.679996    0.267858    1.177402
N      0.999509   -0.602364    0.167147
O      2.473109   -2.062541    1.070145
Cl     0.690177    0.000000    0.000000
H      3.763654    2.074881    0.411524
H      1.476005    2.601685   -0.524765
H      4.222959   -0.212492    1.183277
H     -1.931629   -0.042139   -2.179286
H     -0.145274   -0.527211   -2.229418
H     -3.107140   -0.442063   -0.176669
H     -2.554487   -1.648854    1.109734
H     -2.534257    1.626447   -0.180785
H     -1.134372    2.246967    0.792759
H     -0.206163   -1.946616    1.197452
H      0.506933   -2.602829   -0.272487
H     -1.674328   -2.184878   -1.104764
H     -0.460501    1.845602   -1.547372
H     -2.358377    0.542885    1.920360
H     -0.690177    0.000000    0.000000
