55

C     -3.405692   -1.135079    2.837136
C      7.432742    0.535333   -1.498945
C      8.639241    0.350296   -0.844422
C     -6.692340   -0.529004   -2.260513
C     -5.344199   -0.769713   -2.209383
C     -2.415388    0.625460   -0.840954
C      1.984287    0.686948   -1.035372
C      2.132281    0.212521    1.303640
C      4.956874    0.574916   -1.141617
C      7.503287   -0.010274    1.213026
C     -6.611821    0.282737    0.012514
C     -3.050685   -1.461235    0.419726
C     -2.107805    0.457734    1.496883
C      6.280603    0.440265   -0.765268
C      2.742464    0.428924    0.084830
C     -3.179315   -0.715778   -0.916497
C     -1.479960    0.548768    0.305324
C      8.674710    0.080167    0.498158
C     -7.299842   -0.005028   -1.141842
C     -4.646273   -0.490461   -1.073191
C      0.581367    0.736801   -0.968038
C      0.760939    0.267461    1.335947
C      4.213952    0.382327   -0.012164
C      6.281106    0.169920    0.586222
C     -5.263967    0.042913    0.065930
C     -0.053641    0.524100    0.239184
C     -3.334943   -0.428265    1.521718
O      9.871748   -0.102231    1.141635
O     -8.677054    0.252945   -1.160902
O     -0.044962    1.006265   -2.171413
O      0.172429    0.045611    2.557140
O      5.034648    0.149727    0.966695
O     -4.476237    0.301960    1.194130
H     -4.164182   -0.687111    3.516505
H     -2.406347   -1.069563    3.353148
H     -3.628668   -2.220792    2.722071
H      7.399351    0.747057   -2.549978
H      9.557857    0.421913   -1.408529
H     -7.297170   -0.734725   -3.145454
H     -4.823911   -1.180660   -3.063577
H     -2.041312    0.920963   -1.799238
H     -3.259975    1.380604   -0.668153
H      2.478669    0.857337   -1.999827
H      2.727943    0.010032    2.182447
H      4.608968    0.790494   -2.141386
H      7.498596   -0.221984    2.272541
H     -7.101001    0.696507    0.890892
H     -2.055402   -1.895197    0.513746
H     -3.871094   -2.189444    0.447331
H     -1.738026    0.993673    2.329611
H     -2.793600   -1.355320   -1.733242
H      9.924111   -0.301485    2.126040
H     -9.243878    0.071770   -1.958318
H      0.414902    1.158597   -3.036645
H      0.635614   -0.146804    3.410695
