179

C     14.693459   -1.402205   -0.934726
C     16.797888   -1.027107    0.518696
C     -3.922993    0.909255    1.664070
C     11.205643   -3.184548    0.514254
C      1.932318   -0.949298    0.942792
C      1.487993    1.402778    1.275627
C      5.405583   -0.296460   -0.673195
C      7.863696    1.818693    3.348930
C     11.353964    2.705028    0.495990
C    -12.372286   -3.408540   -0.472138
C     13.500151    0.855027    0.247633
C     14.864363    0.446408    0.663000
C      5.730571   -0.377062    2.265940
C      4.315602   -0.574194    1.861807
C      7.070562    2.018291   -0.149147
C      3.301679    1.199547   -1.745402
C     12.541170    0.832319    1.439493
C      4.302581    1.929929   -0.913026
C      8.407428    2.367123    0.529703
C      8.527587   -0.457615    2.913804
C      1.602169   -1.738538   -3.657687
C    -14.534341    0.775581    0.135809
C     -9.486879    2.370253   -2.513658
C     15.423337   -0.613428    0.106815
C     -4.001685   -0.166444    0.575291
C     11.081606   -2.305244    1.700155
C      6.040303    1.533373    0.821816
C      6.521308    0.558123    1.815786
C     10.039387   -0.235132    2.610022
C    -13.455267    0.365268    1.107528
C     -8.564857    2.352827   -1.312776
C      0.833756   -2.959388   -3.199787
C      3.815866    0.595667    1.039344
C      2.183015    0.601970   -0.911282
C    -13.623518   -1.078108    1.573062
C     -9.232620    2.768862   -0.043889
C     -0.612638   -2.497182   -3.030996
C     -4.699911   -0.514784   -1.782091
C     -3.892707   -1.772480   -1.471159
C    -11.128280   -1.169661    1.681944
C     -7.849227    1.120576    1.208684
C     -5.012702    0.220555   -0.481006
C    -12.377188   -1.867189    1.185740
C     -9.261686    1.641566    0.976046
C     -0.532909   -1.479713   -1.855960
C     10.104799    1.165478    2.042394
C     -2.588208   -1.294280   -0.868634
C    -11.131718    0.276635    1.288739
C     -7.081606    1.083082   -0.067590
C      0.514867   -0.477056   -2.089730
C      9.248690    0.157673    0.226521
C      2.441777    0.443064    0.518213
C      4.895731    0.912565    0.051661
C      7.889426    0.710521    2.290878
C     11.150806    1.265236    1.001531
C      8.830345    1.139462    1.229289
O     11.662312   -2.515244    2.795759
O    -13.912067   -1.167232    2.923459
O     -8.540812    3.841560    0.510859
O     -1.341829   -3.618969   -2.650461
O     -3.885644    0.296680   -2.547135
O     -4.589008   -2.640992   -0.671826
O    -11.036633   -1.311022    3.080373
O     -7.229258    2.008733    2.079534
O      8.686332   -0.769578   -0.379250
O    -16.824162    0.151351   -1.835463
O    -18.327977    1.041153    0.113732
O    -16.699944    2.576996   -0.868295
O    -12.598039    4.386811   -3.563045
O    -10.451364    4.487690   -4.973572
O    -11.337761    2.264563   -4.465160
O      0.805203   -5.403824   -1.664590
O      0.820722   -6.611176   -3.990952
O      2.865684   -5.572154   -3.202712
O    -12.321220   -2.053895   -0.189575
O      0.838856   -0.570962   -3.486465
O    -15.810414    0.674354    0.688973
O    -10.109282    3.602811   -2.585745
O     -2.768212   -0.190792   -0.025790
O     10.292561   -1.196716    1.611969
O    -12.235498    0.501050    0.438653
O     -7.905966    1.139277   -1.190607
O      1.725402   -0.588040   -1.469509
O     -6.330632   -0.070494   -0.143884
O    -10.023180    0.578079    0.512114
O     -1.766360   -0.829874   -1.912088
O     10.617160    0.438313   -0.017858
O      0.910810   -4.029840   -4.073969
S    -16.950030    1.145428   -0.468686
S    -11.148635    3.662394   -3.921984
S      1.378873   -5.445602   -3.261511
H     13.820875   -1.873281   -0.454146
H     15.360493   -2.211177   -1.288939
H     14.438823   -0.771613   -1.802080
H     17.528599   -0.890488   -0.312751
H     17.143494   -0.388400    1.340730
H     16.824631   -2.070939    0.829143
H     -4.510312    0.535970    2.516809
H     -4.200350    1.899992    1.303862
H     -2.868586    0.984498    2.048795
H     12.226265   -3.604297    0.390209
H     10.463503   -4.005121    0.523376
H     10.999023   -2.593605   -0.417120
H      1.993716   -1.112020    2.019922
H      0.849871   -0.935837    0.607381
H      2.420700   -1.726097    0.321859
H      0.706156    1.780716    0.606849
H      2.105659    2.262080    1.623188
H      1.055195    0.937052    2.159211
H      6.006913   -0.982051   -0.052053
H      4.544551   -0.955170   -1.023654
H      5.959451   -0.080634   -1.585361
H      6.820779    1.997326    3.686764
H      8.418297    1.517305    4.260157
H      8.296919    2.756282    3.014150
H     11.386095    2.774775   -0.593824
H     12.379084    3.094678    0.814029
H     10.680098    3.421384    1.011391
H    -13.317568   -3.898545   -0.096690
H    -11.529201   -3.945591    0.003046
H    -12.398481   -3.582817   -1.570895
H     13.540913    1.855481   -0.224802
H     13.137674    0.178854   -0.558661
H     15.422918    0.991146    1.410798
H      6.122132   -1.086107    3.003320
H      4.144370   -1.547354    1.367668
H      3.740713   -0.583209    2.815818
H      7.264183    1.327768   -0.976494
H      6.710679    2.982307   -0.561229
H      2.932615    1.906778   -2.517646
H      3.732412    0.354452   -2.338601
H     12.974881    1.656253    2.108863
H     12.601567   -0.045818    2.053197
H      5.058638    2.380548   -1.552417
H      3.743510    2.661748   -0.295888
H      8.325122    3.288252    1.091998
H      9.070045    2.504142   -0.380685
H      8.181680   -1.433951    2.590592
H      8.457481   -0.462982    4.035029
H      1.736092   -1.863382   -4.758390
H      2.558693   -1.715105   -3.142005
H    -14.367359    1.879306   -0.042069
H    -14.415561    0.297566   -0.838483
H    -10.203301    1.525313   -2.497375
H     -8.855731    2.225898   -3.418011
H     -4.224752   -1.145162    1.007473
H      5.672186    2.442655    1.373526
H     10.614069   -0.397928    3.526932
H    -13.446735    1.031099    1.968946
H     -7.784185    3.108689   -1.545831
H      1.136559   -3.325378   -2.204286
H      3.816328    1.461340    1.769944
H      1.333506    1.332160   -1.075145
H    -14.465925   -1.504674    1.004360
H    -10.244155    3.117079   -0.301477
H     -0.987421   -2.010355   -3.945074
H     -5.639429   -0.778473   -2.280201
H     -3.683682   -2.226354   -2.478663
H    -10.263709   -1.698680    1.206422
H     -7.859029    0.134820    1.704885
H     -4.854756    1.295059   -0.664281
H    -12.453355   -2.853116    1.669832
H     -9.715742    2.028102    1.892412
H     -0.460276   -2.135293   -0.978328
H     10.136071    1.938815    2.820612
H     -2.035153   -2.080859   -0.331199
H    -11.220962    0.897945    2.200589
H     -6.406882    1.948302   -0.180207
H      0.090268    0.570182   -2.001751
H    -14.484385   -0.404362    3.189418
H     -8.681475    3.880177    1.501302
H     -1.174820   -4.368529   -3.258494
H     -3.815208    1.200621   -2.159465
H     -4.917615   -3.457761   -1.168257
H    -10.832707   -2.275473    3.262734
H     -7.234885    1.656653    3.008955
H    -17.103266    0.732472   -2.611715
H    -12.572819    4.691484   -2.617195
H      1.529094   -5.325451   -1.009009
