180

C     11.566667    4.933949    2.779697
C     12.984927    2.973353    2.163732
C     -6.708623    6.879318    0.773431
C     -1.443145   -6.602707   -0.225031
C     -8.681564   -1.312460   -2.518785
C     -0.324908    2.297479    2.949541
C      4.861449   -2.499724    1.167392
C      8.330229    0.430237    0.552793
C      9.490035    4.010590   -2.161474
C      6.280572    2.519861    0.541936
C      7.648617    3.151475    0.177685
C      4.467505   -4.567721   -0.694579
C      6.781120   -1.132851   -1.421042
C      5.470393   -3.462544   -0.974356
C      7.689415    0.015390   -1.780718
C     10.954341    3.524283    0.909572
C      2.603902   -2.956853   -0.961043
C      3.929501    0.496069    0.028442
C     10.641400    2.053994   -1.256516
C     -6.405483   -0.350329    2.716834
C     12.167458    4.115547    1.645655
C     -7.830340    5.956829    1.286605
C     -2.207655   -5.842227   -1.310174
C     -9.106500   -0.055280   -1.760701
C      0.108583    0.935098    2.406575
C     11.422436    2.723993   -0.214003
C      3.239416   -4.211812   -1.507414
C      5.395708    0.191973    0.178228
C      6.160379    1.348274   -0.350996
C      5.789479   -1.026837   -0.565674
C      3.547959   -1.829545   -0.800627
C      3.064452   -0.760492    0.104712
C     -5.713963   -1.176185    1.651948
C      8.089191    2.391979   -1.004127
C     -9.164387    6.625784    1.038273
C     -3.664507   -6.203286   -1.172650
C     -9.749129   -0.455934   -0.479681
C     -0.969017   -0.059727    2.620353
C    -10.267383    5.617093    1.108445
C     -4.460132   -5.504086   -2.261867
C     -9.804230    0.640823    0.551793
C     -9.839117    4.364714    1.865011
C     -3.741140   -4.271558   -2.723195
C     -5.340115   -1.537700   -0.705665
C     -0.430916   -0.804697    0.302194
C     -5.915020   -0.517819    0.313524
C     -1.387697   -0.830359    1.446618
C     -8.614843    1.551631    0.503596
C     -3.945991   -1.942936   -0.337318
C     -8.630324    3.804489    1.156709
C     -2.960224   -3.653902   -1.574167
C      0.895521   -0.302660    0.744028
C     -7.565903    0.961768   -0.369962
C     -3.484858   -1.588968    1.018179
C      4.935215   -2.227007   -0.312887
C      7.630333    0.984251   -0.637083
C      9.345292    2.562938   -1.659924
O     -5.885403    0.932114    2.839982
O     12.684804    2.586655   -0.301747
O     -9.158112    7.180500   -0.238866
O     -3.879649   -7.561772   -1.280922
O    -11.088771   -0.796016   -0.770902
O     -0.592789   -0.888935    3.707589
O    -10.659973    5.291382   -0.189210
O     -5.674766   -5.094160   -1.722550
O    -10.031383    0.040844    1.783315
O     -9.519478    4.741055    3.151464
O     -2.913800   -4.502313   -3.821783
O     -5.341853   -0.997185   -1.985868
O     -0.349657   -2.025649   -0.337614
O      9.127392    1.889961   -2.982322
O      3.186206   -7.393482   -3.055202
O      2.868462   -5.050990   -4.021849
O      0.852488   -6.306464   -3.269101
O     -7.708993    4.720097    0.734097
O     -2.009574   -4.504967   -1.067351
O      0.622303    1.055626    1.125255
O     -8.029215    0.770612   -1.693419
O      1.807406   -0.303537   -0.289030
O     -4.400329   -1.306486    1.987897
O     -7.247470   -0.317236    0.075322
O     -2.640618   -0.459818    0.951386
O     -8.948927    2.855002    0.212356
O     -3.855715   -3.320631   -0.580855
O      2.385100   -5.281121   -1.450977
S      2.272797   -5.975283   -2.971793
H     12.356931    5.298081    3.431800
H     10.998551    5.747966    2.299178
H     10.844264    4.237392    3.293629
H     13.058958    3.030518    3.276155
H     12.487894    2.028674    1.944922
H     13.989579    3.008635    1.680842
H     -7.160895    7.658662    0.139068
H     -6.017685    6.305788    0.119264
H     -6.185393    7.374975    1.603903
H     -0.495414   -6.055864    0.033428
H     -2.035939   -6.741920    0.676436
H     -1.116601   -7.577733   -0.622869
H     -8.112476   -1.002115   -3.446644
H     -9.549964   -1.866361   -2.900234
H     -8.094674   -2.001148   -1.903573
H     -1.127520    2.095206    3.687145
H     -0.749829    2.950223    2.183150
H      0.496055    2.778557    3.533611
H      4.839704   -1.620299    1.809577
H      5.737128   -3.150909    1.410108
H      3.918082   -3.067165    1.419381
H      8.758099    1.184605    1.211095
H      7.625980   -0.162183    1.175332
H      9.070222   -0.318123    0.192059
H      8.779350    4.144166   -3.033484
H      9.104972    4.735003   -1.401114
H     10.529570    4.226911   -2.437694
H      6.190185    2.315284    1.607257
H      5.505278    3.265550    0.261542
H      8.207522    3.129326    1.089193
H      7.499323    4.230469   -0.103302
H      4.915460   -5.504646   -1.115915
H      4.265199   -4.747391    0.355862
H      7.031096   -2.060893   -1.942523
H      5.543240   -3.402738   -2.070923
H      6.410949   -3.735067   -0.473172
H      8.711424   -0.393219   -1.855446
H      7.335063    0.484633   -2.726002
H     10.278332    4.305204    0.579690
H     10.427872    2.822073    1.610330
H      2.099699   -3.231923   -0.010614
H      1.863838   -2.650202   -1.758592
H      3.725831    1.032085   -0.908569
H      3.623514    1.142584    0.869199
H     11.337954    2.057317   -2.180419
H     10.665765    0.960761   -0.998021
H     -6.209126   -0.866968    3.700517
H     -7.500693   -0.365283    2.590578
H     12.722009    4.721223    0.920534
H     -7.683116    5.897301    2.383823
H     -1.766765   -6.188481   -2.278073
H     -9.872371    0.426767   -2.438768
H      0.971021    0.640236    3.102886
H      3.582025   -4.053818   -2.547821
H      5.664379    0.113570    1.274594
H      5.760158    1.697896   -1.330354
H      3.726272   -1.354063   -1.800633
H      2.986187   -1.079956    1.173732
H     -6.260798   -2.161598    1.658821
H      7.277849    2.672176   -1.806839
H     -9.318818    7.485792    1.744697
H     -3.981629   -5.830315   -0.173062
H     -9.324342   -1.371232   -0.015920
H     -1.921715    0.468603    2.995494
H    -11.157103    6.063528    1.605507
H     -4.648671   -6.150188   -3.139654
H    -10.748782    1.243141    0.374954
H    -10.713189    3.685737    1.815430
H     -4.485810   -3.506897   -3.031715
H     -6.013183   -2.409941   -0.723450
H     -0.795192   -0.070651   -0.488136
H     -5.273956    0.352354    0.191052
H     -1.411092   -1.927735    1.772327
H     -8.180579    1.604616    1.522098
H     -3.196382   -1.498950   -1.064767
H     -8.116519    3.216822    1.984022
H     -2.492989   -2.717030   -1.983710
H      1.233129   -0.759543    1.662241
H     -6.600480    1.509741   -0.386681
H     -2.859381   -2.455039    1.391337
H     -5.007600    0.900278    3.255425
H    -10.052835    7.639931   -0.336532
H     -3.481616   -7.959516   -2.080801
H    -11.637606   -0.846713    0.042424
H     -1.156947   -1.700932    3.639016
H    -11.473399    4.701516   -0.196275
H     -6.357909   -5.812334   -1.821825
H    -10.092531    0.756793    2.465105
H     -8.821362    4.116168    3.491294
H     -3.429905   -4.637237   -4.651664
H     -5.138594   -0.041257   -1.943778
H     -0.351513   -1.886512   -1.304680
H      9.935569    2.084405   -3.490972
H      3.084537   -7.959930   -2.266816
