181

C    -14.640981    4.599975   -1.510343
C    -15.888669    2.593036   -0.641859
C      5.075991   -2.095816    2.507281
C    -13.660613   -2.692150   -0.575229
C     -3.077418   -0.748494   -1.967873
C     -2.954381   -2.862210   -0.796848
C     -5.296060    1.154142   -0.097366
C     -8.334615   -1.791565    2.892593
C    -10.590374    2.353042    1.262032
C     14.804501   -1.192324    1.528215
C    -13.518033    1.451614    0.184356
C    -13.502717    2.904119   -0.107905
C     -6.842756   -1.794549   -0.318926
C     -5.520684   -1.734157   -0.961941
C     -6.690684    0.573493    2.464211
C     -2.481795    0.569288    0.871363
C    -12.620206    0.894477    1.198511
C     -3.774357    0.414757    1.629775
C     -8.117233    0.972974    2.236008
C     -9.454312   -2.007594    0.732957
C      1.700326    0.461012   -1.382839
C     13.664119    3.734141    0.385326
C      9.937923   -0.812955   -2.540074
C    -14.605098    3.142033   -1.164455
C      4.620497   -2.727294    1.220585
C    -12.690642   -2.629818    0.552054
C     -6.101394   -0.449828    1.608632
C     -7.096145   -1.228608    0.813853
C    -10.726381   -1.456113    1.448948
C     12.963208    2.700339    1.242781
C      8.670849   -0.346599   -1.845393
C      1.027181    0.005694   -2.628079
C     -4.507774   -1.250783    0.030825
C     -2.041764   -0.809463    0.299876
C     13.971040    1.956904    2.115838
C      8.902606    0.883545   -1.017132
C      0.863811   -1.527155   -2.561265
C      4.994930   -3.228831   -1.114178
C      3.754042   -4.014084   -0.896944
C     11.962755    0.503666    2.425864
C      8.322023   -0.557955    0.976645
C      5.319334   -2.244048   -0.005542
C     13.466622    0.542238    2.288702
C      9.203667    0.546560    0.430269
C      0.979176   -1.977967   -1.124141
C    -10.416609   -0.084763    1.923109
C      2.716965   -3.243388   -0.065505
C     11.301852    1.171664    1.241256
C      7.334219   -1.001567   -0.069064
C      0.292137   -0.946032   -0.210244
C     -9.272573    0.514390    0.038315
C     -3.154755   -1.344927   -0.564765
C     -4.906864   -0.010900    0.743888
C     -8.418532   -1.291892    1.488675
C    -11.162870    0.985457    1.146693
C     -8.977497    0.126165    1.413359
O    -12.735510   -3.405368    1.527951
O     14.146442    2.563653    3.344114
O      7.880945    1.824698   -1.117572
O     -0.314778   -1.928378   -3.176482
O      4.864661   -2.484324   -2.280788
O      3.990057   -5.265985   -0.325760
O     11.654235    1.242248    3.568193
O      7.712919   -0.192390    2.163331
O     -8.460878    0.802656   -0.913325
O     14.122729    7.041501   -0.199297
O     15.693596    5.084961   -0.892450
O     16.232473    6.408785    1.092417
O     12.850495   -1.153149   -2.723524
O     12.690730    0.505346   -4.784226
O     11.499721   -1.686002   -4.844956
O      1.873711    0.817463   -6.360592
O     -0.359259    0.821122   -4.965816
O      1.195822    2.667545   -4.708241
O     13.898087   -0.181250    1.203236
O      1.079556    0.208216   -0.185365
O     14.284453    4.647500    1.232498
O     10.546584    0.163857   -3.291557
O      3.249558   -2.839819    1.137827
O    -11.705481   -1.664718    0.499532
O     12.309589    1.745576    0.472106
O      8.189365   -1.424239   -1.156212
O     -0.956155   -0.614588   -0.431920
O      6.651093   -2.128866    0.221712
O     10.547605    0.252409    0.515071
O      2.223427   -2.183399   -0.685416
O    -10.651169    0.544118   -0.163511
O      1.887840    0.321837   -3.683674
S     15.102446    5.801334    0.308160
S     11.925833   -0.514703   -3.992834
S      1.116183    1.178896   -4.887083
H    -15.358130    5.174065   -0.924361
H    -13.598192    4.987031   -1.406257
H    -14.879225    4.647085   -2.618082
H    -15.958263    2.737107    0.448122
H    -15.919636    1.493312   -0.866225
H    -16.742262    3.061875   -1.180365
H      4.265262   -2.356905    3.262354
H      5.137850   -1.016368    2.523559
H      5.965221   -2.620030    2.865467
H    -13.886206   -3.751996   -0.838475
H    -14.586918   -2.123242   -0.359662
H    -13.218478   -2.266612   -1.522965
H     -2.125407   -0.197012   -2.128016
H     -3.120138   -1.521920   -2.760039
H     -3.876232   -0.037451   -2.193081
H     -3.126440   -3.155405   -1.828321
H     -3.539918   -3.446355   -0.056323
H     -1.894103   -3.055277   -0.542051
H     -5.749508    0.874350   -1.064864
H     -6.133138    1.681701    0.460997
H     -4.509929    1.933004   -0.178661
H     -7.276033   -2.061312    3.107665
H     -8.758158   -1.112935    3.645182
H     -8.911222   -2.756399    3.022416
H    -11.348443    3.177095    1.220897
H    -10.237728    2.451150    2.331849
H     -9.841050    2.643448    0.515656
H     15.724285   -0.783051    2.006898
H     14.247099   -1.905603    2.168031
H     15.126900   -1.650745    0.570691
H    -13.598005    0.820107   -0.748062
H    -14.569180    1.275074    0.610964
H    -12.580670    3.261644   -0.614294
H    -13.661334    3.486053    0.795377
H     -7.665992   -2.340291   -0.802807
H     -5.240823   -2.795507   -1.198116
H     -5.563196   -1.116862   -1.885234
H     -6.617027    0.227211    3.541865
H     -5.998785    1.472991    2.471293
H     -2.635965    1.214398    0.016179
H     -1.653981    0.948558    1.470242
H    -12.878408    1.607273    2.128385
H    -12.970407   -0.099581    1.520728
H     -3.960543    1.333653    2.196091
H     -3.564507   -0.366338    2.419691
H     -8.043872    2.062893    1.920171
H     -8.629392    1.063723    3.247084
H     -9.478786   -3.089063    0.874775
H     -9.515370   -1.702288   -0.338270
H      1.865893    1.556255   -1.467206
H      2.709051    0.007183   -1.337818
H     12.932711    4.258873   -0.225708
H     14.394435    3.274652   -0.315355
H      9.680972   -1.709490   -3.127825
H     10.654486   -1.172274   -1.737894
H    -14.250282    2.564596   -2.066985
H      4.943286   -3.819464    1.317460
H     -5.614342   -1.263759    2.238738
H    -10.890883   -2.129879    2.335233
H     12.244135    3.229903    1.899406
H      7.945623   -0.072049   -2.638803
H      0.072926    0.490267   -2.873522
H     -4.519492   -2.059216    0.837580
H     -1.996770   -1.415590    1.217100
H     14.932217    1.918499    1.532860
H      9.822350    1.360151   -1.426733
H      1.679011   -1.901950   -3.196765
H      5.834134   -3.932729   -1.304290
H      3.319548   -4.217073   -1.900211
H     11.641842   -0.556289    2.530729
H      9.015647   -1.420165    1.168385
H      4.897153   -1.288081   -0.334623
H     13.925895    0.186378    3.258114
H      8.955668    1.468082    0.997454
H      0.407629   -2.889829   -0.984020
H    -10.477214    0.060880    3.014326
H      1.964458   -4.019422    0.189954
H     10.606065    1.943309    1.577614
H      6.822751   -0.140667   -0.462088
H      0.374945   -1.382323    0.795214
H     14.920996    3.197260    3.303855
H      8.174766    2.575157   -1.673811
H     -0.496838   -2.856941   -2.886991
H      4.799425   -1.514629   -2.150169
H      3.857435   -5.996099   -0.958695
H     12.381358    1.147310    4.237071
H      7.608202    0.807636    2.215754
H     13.158935    6.883708   -0.035131
H     12.845159   -0.563765   -1.935955
H      2.769190    0.457885   -6.175741
