181

C    -14.901594    0.937969    1.818018
C    -15.345222   -0.875779    3.372812
C      3.439468    1.696164    1.613564
C    -11.856763   -4.132453    0.601068
C     -1.278090   -0.803035   -0.312320
C     -1.151086    1.511082    0.295070
C     -4.281458    2.423483    0.876634
C     -7.325260   -0.359093   -2.136500
C    -11.097127    1.934413    0.280307
C     10.536729    4.507131   -1.357963
C    -12.009785    0.795756    2.577725
C    -13.101698    0.114306    3.330431
C     -5.208674   -0.738358    0.579421
C     -3.788961   -0.283507    0.909184
C     -6.572919    2.366231   -0.675459
C     -2.847376    1.853345   -2.543339
C    -11.479779   -0.132226    1.462894
C     -3.612957    2.610187   -1.523210
C     -7.986374    1.962317   -0.628978
C     -7.906986   -1.632372   -0.110976
C     -0.364301   -0.328855   -5.589640
C     13.496127    0.305693    0.915553
C      9.441015   -2.431650    1.935217
C    -14.274777   -0.262903    2.466388
C      3.897934    1.160568    0.251590
C    -11.007619   -3.233109   -0.218014
C     -5.555743    1.290583   -0.845654
C     -5.969124   -0.006952   -0.213033
C     -9.405276   -1.370550   -0.373550
C     12.687516    1.505325    1.332977
C      8.292843   -1.479277    2.294506
C      0.531340   -1.431536   -5.138122
C     -3.359580    0.430430   -0.322667
C     -1.814659    0.894470   -2.065794
C     11.847491    1.888675    0.124438
C      8.737432   -0.667607    3.482045
C      1.764185   -0.942646   -4.436528
C      4.757477   -0.932353   -0.684553
C      4.312993   -0.185185   -1.892837
C     10.601452    3.129430    1.808720
C      7.354838    1.172000    2.543161
C      4.843594    0.045808    0.486690
C     11.156839    3.197916    0.432206
C      8.696932    0.795728    3.106557
C      1.384638    0.075963   -3.388356
C     -9.642077    0.078708   -0.309284
C      2.963393    0.486507   -1.757912
C     10.699532    1.796727    2.490125
C      6.874484    0.103014    1.617975
C     -0.061093    0.324436   -3.441685
C     -8.202343    0.719111    1.421215
C     -1.906969    0.583415   -0.583139
C     -4.160590    1.695459   -0.450526
C     -7.330476   -0.380238   -0.628967
C    -10.407799    0.661419    0.793653
C     -8.246929    0.639932   -0.035235
O    -10.944214   -3.313499   -1.466269
O     12.702065    2.074478   -0.928838
O      7.986766   -0.945078    4.625857
O      2.700037   -0.446859   -5.359594
O      3.991071   -2.052967   -0.374083
O      5.253894    0.810892   -2.153838
O     11.161743    4.103330    2.640951
O      6.426840    1.437030    3.562941
O     -7.263636    0.518205    2.187180
O     14.441240   -2.029850    0.004271
O     15.318232   -2.513626    2.407570
O     16.578066   -0.957015    1.021860
O     10.408508   -5.854816    2.352971
O     11.972751   -3.819538    1.699471
O     11.755519   -4.479482    4.030774
O      0.549739   -3.927870   -6.742600
O      0.347512   -5.030648   -4.436261
O     -1.663457   -4.233564   -5.493763
O     10.226278    3.406933   -0.561273
O     -0.286975    0.805023   -4.780875
O     14.321722   -0.114595    1.939713
O      9.755745   -3.235444    3.014089
O      2.759690    0.857278   -0.474600
O    -10.210090   -2.220277    0.358021
O     11.916799    1.180480    2.418104
O      7.969519   -0.665038    1.215665
O     -0.593901    1.251583   -2.550142
O      6.144485    0.540905    0.528728
O      9.652220    0.974675    2.078610
O      1.935974   -0.345389   -2.189444
O     -9.489959    1.084433    1.808509
O     -0.145027   -2.442132   -4.474956
S     15.198308   -1.440787    1.378448
S     10.999778   -4.307347    2.723524
S     -0.198411   -3.896324   -5.244132
H    -14.841227    1.831503    2.478680
H    -15.993830    0.779790    1.604516
H    -14.396641    1.226265    0.855113
H    -16.002511   -1.546606    2.752702
H    -16.005995   -0.090048    3.786532
H    -14.911576   -1.529882    4.147006
H      2.574567    2.353859    1.407928
H      3.202441    0.826726    2.215693
H      4.283057    2.283701    2.067379
H    -12.795885   -4.330022    0.065742
H    -11.347615   -5.130254    0.727443
H    -12.084247   -3.674174    1.588690
H     -1.288061   -0.911662    0.791218
H     -1.879238   -1.594346   -0.779109
H     -0.215382   -0.802861   -0.592941
H     -0.067996    1.422329   -0.012821
H     -1.170677    1.098129    1.320457
H     -1.384342    2.565199    0.212050
H     -5.094231    1.961758    1.464321
H     -3.370743    2.298995    1.511118
H     -4.399865    3.517981    0.748478
H     -8.084283   -0.954010   -2.630512
H     -7.377468    0.670470   -2.548911
H     -6.344852   -0.766983   -2.465215
H    -10.717331    2.198966   -0.726133
H    -10.913170    2.792017    0.951112
H    -12.183766    1.729671    0.120730
H     10.575898    5.411005   -0.718898
H     11.404571    4.358444   -2.012111
H      9.652275    4.689896   -2.037168
H    -11.155748    0.976684    3.259912
H    -12.299825    1.768398    2.155592
H    -13.503962    0.822453    4.101906
H    -12.751402   -0.775686    3.874298
H     -5.579375   -1.641803    0.992885
H     -3.767477    0.323162    1.815601
H     -3.244793   -1.225854    1.118096
H     -6.460686    3.046768   -1.575202
H     -6.289344    3.003445    0.188529
H     -3.615914    1.313419   -3.177331
H     -2.350352    2.581790   -3.244150
H    -12.348420   -0.368536    0.850929
H    -11.072831   -0.991833    2.061467
H     -3.099563    3.507696   -1.107821
H     -4.479593    3.080665   -2.093320
H     -8.520720    2.722610    0.023959
H     -8.516254    2.076330   -1.622219
H     -7.563809   -2.501435   -0.682918
H     -7.815711   -1.776984    0.963576
H     -1.434914   -0.686074   -5.499277
H     -0.221402   -0.092041   -6.660495
H     14.079121    0.524122   -0.010667
H     12.753267   -0.511909    0.717826
H     10.280936   -1.813752    1.608989
H      9.153997   -3.078029    1.085446
H    -14.064357   -1.012532    1.695776
H      4.456878    1.964275   -0.291967
H     -5.479452    1.040616   -1.941925
H     -9.548171   -1.682702   -1.453090
H     13.363556    2.364779    1.542327
H      7.435138   -2.136799    2.573026
H      0.903008   -1.924236   -6.092877
H     -3.727812   -0.229296   -1.176240
H     -2.084605   -0.113847   -2.545543
H     11.126029    1.084441   -0.099080
H      9.796796   -0.906645    3.783565
H      2.277196   -1.792883   -3.892856
H      5.805301   -1.327338   -0.817693
H      4.343434   -0.830417   -2.824567
H      9.510087    3.391373    1.764068
H      7.515211    2.099071    1.929639
H      4.708151   -0.522381    1.441416
H     11.927604    4.016695    0.327049
H      8.997221    1.413223    3.999088
H      1.909784    1.025046   -3.736899
H     -9.942926    0.526907   -1.297028
H      2.994113    1.336304   -2.465524
H     10.484400    2.018842    3.576379
H      6.194220   -0.601162    2.192135
H     -0.723248   -0.550698   -3.398093
H     12.417512    1.712631   -1.791300
H      7.348914   -1.669461    4.486570
H      3.329652   -1.166336   -5.608773
H      4.406559   -2.901441   -0.630005
H      5.088548    1.236658   -3.046422
H     11.210161    4.974570    2.176587
H      5.791872    0.686331    3.567920
H     15.033116   -2.700272   -0.420731
H     11.004092   -6.271853    1.699048
H      0.659290   -4.892132   -6.985175
