54

C     -6.538808   -0.896786   -0.331648
C      6.109974   -0.701714    0.702453
C      4.065667    4.104525   -0.915033
C     -5.279339   -1.262281   -0.535472
C      0.646009   -2.906114   -0.224540
C     -0.745056    0.687052   -1.812971
C      1.968718   -2.762342    0.174529
C      0.328314    1.446771   -1.805788
C     -1.374916    0.335739    1.909036
C     -4.391543   -1.386892    0.617176
C     -2.417936   -0.735766    1.790463
C     -1.672068   -1.989360   -0.559784
C      4.703000   -0.897043    0.278495
C      2.635628    3.750871   -0.803604
C     -0.241326   -1.865731   -0.097872
C     -1.516009    0.549551   -0.546245
C     -2.400490   -0.695900   -0.559318
C      2.392987   -1.540930    0.709352
C      0.773319    2.151172   -0.594214
C      0.233945   -0.711400    0.429358
C      1.505904   -0.490143    0.839453
C      0.450190    1.543148    0.709139
C     -0.626371    0.491641    0.642087
N     -3.244361   -0.548018    0.612050
O      4.363098   -0.628770   -0.923797
O      1.804704    4.719543   -0.805094
O      3.704359   -1.362429    1.116812
O      2.159777    2.455070   -0.700063
O      1.572283    0.833998    1.309375
H     -6.934964   -0.685708    0.669086
H     -7.231383   -0.790471   -1.142157
H      6.193198   -0.945463    1.773593
H      6.729601   -1.429950    0.131447
H      6.461856    0.329685    0.466084
H      4.669623    3.196410   -1.076024
H      4.173070    4.758408   -1.812609
H      4.418728    4.653815   -0.017360
H     -4.993722   -1.446410   -1.567923
H      0.314206   -3.867603   -0.645693
H     -1.108702    0.152065   -2.680427
H      2.687490   -3.576858    0.082411
H      0.929338    1.577494   -2.718491
H     -0.667230   -0.015116    2.712092
H     -1.874757    1.282138    2.213295
H     -4.956994   -1.189074    1.545602
H     -4.072372   -2.459475    0.684148
H     -3.117021   -0.587562    2.665353
H     -2.023784   -1.751959    1.907585
H     -2.131033   -2.732600    0.130220
H     -1.641624   -2.470687   -1.567425
H     -2.192788    1.416277   -0.462025
H     -3.023752   -0.594008   -1.474715
H      0.265456    3.160348   -0.618607
H      0.157906    2.328843    1.432602
