54

C     -4.452249    2.261471   -0.427418
C      5.988797    1.142083    0.028991
C      5.017450    1.543992    0.913979
C      5.746816    0.032312   -0.756471
C      3.820900    0.856921    1.021277
C      4.537367   -0.648411   -0.636585
C     -2.150638   -0.070688    1.275663
C     -2.098510   -0.457101   -1.202904
C      2.282881   -1.685296    1.706072
C      3.562223   -0.250658    0.247103
C     -1.312679   -0.044265    0.020315
C      2.304696   -1.018499    0.321863
C     -3.475773    0.625512    1.042160
C     -3.466126    0.192687   -1.166853
C     -4.528259   -0.450337    0.911494
C     -4.421652   -0.807160   -0.563872
C      1.109744   -0.197253    0.141201
N     -3.414819    1.292738   -0.236268
O      3.385254   -2.527070    1.842621
O      1.204468    1.031417   -0.054440
O     -0.139583   -0.776358    0.185641
O     -5.560464   -0.293176    0.001053
Br     0.765087    0.000000    0.000000
O     -0.004013    0.365945   -0.000000
O     -0.001673    0.400541   -0.000000
O     -0.004138    0.397706   -0.000000
H     -5.337924    2.042858    0.216738
H     -4.736941    2.415171   -1.471460
H     -4.046173    3.246254   -0.059170
H      6.942530    1.651319   -0.088459
H      5.206731    2.411440    1.527864
H      6.506452   -0.297090   -1.461128
H      3.036086    1.156578    1.715459
H      4.428025   -1.507377   -1.288752
H     -2.314529   -1.108678    1.651805
H     -1.606598    0.517468    2.046576
H     -2.137944   -1.542886   -1.355027
H     -1.563681   -0.011040   -2.082626
H      1.351636   -2.263477    1.803838
H      2.315929   -0.893849    2.504450
H     -1.033760    1.033429   -0.143473
H      2.371654   -1.857187   -0.413406
H     -3.741064    1.322879    1.860362
H     -3.801771    0.502565   -2.180500
H     -4.552073   -1.234569    1.666879
H     -4.299743   -1.883276   -0.762567
H      3.073313   -3.453390    1.658400
H     -0.765087    0.000000    0.000000
H      0.824773   -0.181649    0.000000
H     -0.820759   -0.184296   -0.000000
H     -0.794306   -0.200956   -0.000000
H      0.795979   -0.199585    0.000000
H      0.798114   -0.197352    0.000000
H     -0.793976   -0.200354   -0.000000
