34

C      2.210738   -0.876283    0.910084
C      2.863240   -0.322314   -1.374547
C     -3.212579   -1.156654    0.644397
C     -0.965672   -1.672136   -0.345142
C      0.136323   -1.016537   -1.126789
C     -1.135709    0.151402    1.169518
C     -0.807818    3.245004    0.256186
C      2.065790    0.129482   -0.193249
C     -1.943911   -0.613795    0.111564
C      0.606969    0.282979   -0.645198
C     -0.203995    1.016615    0.350106
Cl     0.886648    3.663149   -0.065349
O     -1.034747    1.974460   -0.249282
H      3.300746   -1.002129    1.082894
H      1.784026   -0.538113    1.878387
H      1.832299   -1.883366    0.648892
H      3.828144    0.244104   -1.456511
H      2.292927   -0.173592   -2.319992
H      3.100218   -1.405417   -1.324515
H     -3.186145   -1.500408    1.688652
H     -3.562189   -1.979561   -0.012307
H     -3.998086   -0.351854    0.542073
H     -1.485873   -2.456452   -0.895488
H     -0.552691   -2.136793    0.575908
H     -0.248058   -0.974990   -2.191468
H      0.961590   -1.784265   -1.193179
H     -1.835365    0.776384    1.726029
H     -0.615514   -0.552983    1.821969
H     -1.033285    3.305900    1.330059
H     -1.451215    3.939994   -0.316083
H      2.423873    1.099860    0.189328
H     -2.157834    0.034570   -0.763937
H      0.706210    0.963694   -1.547812
H      0.430943    1.570046    1.094801
