39

C     -3.235346    0.776718    0.420556
C     -1.571360    2.299250   -0.349057
C      2.736557    2.812994   -0.007013
C      1.242943   -2.752831    0.389656
C     -1.047910   -2.588532   -0.597847
C     -2.154457   -1.527005   -0.358010
C      1.750132    0.851969   -1.106260
C      1.695044    0.813690    1.302828
C      1.081905   -0.455156   -1.096763
C      0.300049    0.241788    1.207889
C     -2.040626    0.892620   -0.170130
C      2.048542    1.467997    0.028060
C     -0.057675   -2.040262    0.415301
C     -1.312204   -0.271876   -0.624495
C      0.038679   -0.567725   -0.022544
H     -3.799986    1.646927    0.736678
H     -3.698589   -0.174715    0.605070
H     -0.592728    2.318417   -0.810819
H     -2.279732    2.720551   -1.136231
H     -1.663058    2.912366    0.572688
H      3.644407    2.751220    0.613348
H      2.046378    3.611986    0.269798
H      3.078408    3.003558   -1.047255
H      1.495485   -3.204699   -0.589295
H      2.024241   -2.131711    0.818506
H      1.140984   -3.636681    1.086878
H     -0.662638   -2.477358   -1.612699
H     -1.401949   -3.592223   -0.369833
H     -2.997766   -1.642118   -1.015885
H     -2.425319   -1.631985    0.693287
H      2.026619    1.366373   -2.041217
H      2.452394    0.058198    1.601690
H      1.649574    1.562932    2.148916
H      0.585328   -0.608601   -2.097345
H      1.864341   -1.246432   -1.012069
H      0.118733   -0.400084    2.135177
H     -0.390889    1.092497    1.365339
H     -0.475295   -2.042195    1.422068
H     -1.213217   -0.209865   -1.768970
