65

C     -3.939217   -0.557798    0.422717
C      4.037593    0.595061   -0.007621
C     -3.935008    0.923722    0.712132
C      3.830565   -0.550968    0.967931
C     -2.645787   -1.226278    0.756270
C      2.691276    1.325780   -0.068259
C     -2.760320    1.522792    0.009370
C      2.679690   -1.414100    0.593074
C     -0.412055   -0.043160   -1.791102
C      0.564867   -1.707607   -0.313555
C     -0.346254    1.607537    0.045821
C     -0.729963   -1.092931   -0.734492
C      0.432524    1.011360   -1.096573
C     -1.424521   -0.452101    0.475662
C      1.709039    0.360778   -0.657313
N     -1.548162    0.916089    0.221817
N      1.477482   -0.723254    0.260441
O     -0.910106    1.118687   -0.086639
O      1.323741   -0.532182   -0.234813
O     -0.983149   -1.236039   -1.094241
O     -0.700624   -1.003235    1.332166
S     -0.313443   -0.422838   -0.002859
O     -0.003606    0.385740   -0.000000
O     -0.000524    0.367948   -0.000000
O     -0.000424    0.367237   -0.000000
O     -0.000147    0.380413   -0.000000
O     -0.006063    0.384471   -0.000000
H     -4.768415   -0.999407    1.045048
H     -4.234841   -0.695859   -0.626621
H      4.843263    1.236807    0.346333
H      4.252159    0.113280   -0.995281
H     -3.856535    1.135503    1.797012
H     -4.875839    1.338708    0.295397
H      4.755282   -1.178123    0.943713
H      3.762680   -0.140712    1.988226
H     -2.650781   -2.217693    0.211842
H     -2.716221   -1.533141    1.842977
H      2.845396    2.217391   -0.696351
H      2.461635    1.583860    1.000126
H     -2.717738    2.607566    0.322743
H     -3.023264    1.572770   -1.081506
H      2.447638   -2.063516    1.487694
H      2.949296   -2.131056   -0.210303
H      0.253497   -0.541415   -2.524231
H     -1.306987    0.378923   -2.258374
H      1.009824   -2.305522   -1.103571
H      0.329726   -2.411959    0.535885
H      0.271849    1.516935    0.974227
H     -0.502416    2.702078   -0.094468
H     -1.354219   -1.867736   -1.188043
H      0.698423    1.832624   -1.795603
H     -0.737400   -0.566134    1.368397
H      2.182240   -0.079097   -1.564997
H     -0.252712    1.827337    0.016437
H      1.836292    0.248268    0.069949
H      0.809462   -0.191610    0.000000
H     -0.805856   -0.194130   -0.000000
H      0.819987   -0.183814    0.000000
H     -0.819464   -0.184134   -0.000000
H     -0.813740   -0.183779   -0.000000
H      0.814164   -0.183458    0.000000
H      0.817588   -0.190159    0.000000
H     -0.817441   -0.190254   -0.000000
H     -0.801239   -0.194440   -0.000000
H      0.807303   -0.190031    0.000000
