34

C      1.870993   -1.152405   -0.486445
C      2.458150    1.019628    0.220580
C      3.219456   -1.499065   -0.403436
C      3.786396    0.677953    0.302281
C     -3.391738    0.652112    0.620549
C     -4.344382   -0.295648   -0.066713
C     -0.754965    0.022475    0.877814
C      1.494185    0.114253   -0.171799
C      4.174791   -0.594500   -0.012460
C      0.105709    0.594897   -0.221493
C     -1.845410    0.020458   -1.087297
Br     6.030555   -1.075165    0.100759
N     -0.606510    0.205609   -1.393937
N     -2.053416    0.266927    0.295539
S     -3.493152   -0.436092   -1.692740
C      0.688509   -0.249858    0.137582
C     -0.714923    0.125269   -0.050994
O      1.724430    0.327596   -0.540405
O      0.951652   -1.153667    0.970143
O     -1.740986   -0.481076    0.653302
O     -1.013544    1.025540   -0.875763
H      1.130040   -1.862056   -0.792022
H      2.207614    2.054107    0.485319
H      3.524571   -2.499862   -0.651038
H      4.525842    1.409474    0.613962
H     -3.569795    0.545138    1.698436
H     -3.629594    1.695702    0.331201
H     -4.445829   -1.263034    0.420857
H     -5.298980    0.243946   -0.235632
H     -0.604521    0.529226    1.846525
H     -0.516279   -1.073083    0.941800
H      0.026271    1.699008   -0.138169
H      2.684875    0.365811   -0.214407
H     -2.580014    0.040386    0.935392
