62

C     -1.190119    1.997057    0.781490
C      3.128294   -0.838087    0.053492
C      1.749104   -1.030051   -0.084323
C     -0.992486   -1.524034    0.097206
C     -2.475297   -1.374486   -0.252973
C      3.623324    0.441526   -0.109011
C      1.442970    1.261993   -0.523751
C      0.905849    0.012816   -0.371717
C     -0.514709   -0.197078   -0.515423
C     -2.678144    0.050979    0.121931
N      2.791904    1.438225   -0.386898
N     -1.390959    0.713473    0.162067
O     -3.801560    0.569370    0.360170
C     -1.569412   -1.780249   -0.774882
C      2.811468   -0.145368   -0.596356
C      1.437363    0.079423   -0.486734
C     -1.081522    1.429688    1.056689
C     -1.490759    1.897414   -0.302407
C      3.509166   -0.679246    0.466310
C      1.507385   -0.753674    1.696863
C      0.747449   -0.221240    0.670191
C     -0.705335   -0.003076    0.843245
C     -2.135116    0.680144   -0.880702
N      2.819441   -0.970118    1.596938
N     -1.475049   -0.426931   -0.293134
O     -3.072655    0.724375   -1.718399
C     -0.458981    0.407356   -0.278254
C      0.469050   -0.460208    0.104671
C     -1.887522    0.115051   -0.127121
C      1.893735   -0.189232   -0.036710
O     -2.719855    0.971641   -0.506271
O     -2.362695   -1.051610    0.409706
O      2.727250   -1.046107    0.342556
O      2.381535    0.987104   -0.578104
H     -0.224058    2.045814    1.363836
H     -1.978076    2.196057    1.544332
H     -1.275757    2.800395    0.043435
H      3.803897   -1.651627    0.279896
H      1.416659   -2.044443    0.052001
H     -0.892712   -1.484215    1.179322
H     -0.540682   -2.390051   -0.398177
H     -2.569342   -1.441985   -1.355533
H     -3.107505   -2.066123    0.295008
H      4.703423    0.573618    0.002149
H      0.887060    2.155916   -0.751552
H     -0.821078   -0.215060   -1.586977
H     -2.276388   -2.323615   -0.082108
H     -0.598457   -2.323006   -0.719604
H     -2.043713   -1.850300   -1.775377
H      3.341314    0.097139   -1.515685
H      0.873617    0.496187   -1.308859
H     -0.264783    2.034360    1.500913
H     -1.998364    1.456243    1.696623
H     -0.669957    2.284893   -0.924856
H     -2.218561    2.733234   -0.207088
H      4.566326   -0.872040    0.434874
H      0.998320   -1.008294    2.637748
H     -1.011778   -0.555944    1.777713
H     -0.124909    1.334682   -0.704400
H      0.092765   -1.381198    0.528477
H     -3.224814   -1.089725    0.977218
H      3.214442    1.402245   -0.131768
