52

C     -2.036519    3.322872   -1.346521
C      1.679447   -0.992302    1.236623
C      3.899153    0.888748   -2.046952
C      4.037546   -0.905208   -0.536182
C     -1.987250    1.969823   -0.690490
C     -2.454189    0.206361    4.010454
C     -1.765652   -2.926319   -2.146024
C     -1.117697    0.538257    3.975819
C     -3.040426   -0.105123    2.801274
C     -1.676145   -3.078662   -0.794896
C     -1.369675   -1.730173   -2.706326
C     -0.392233    0.562660    2.806552
C     -2.321488   -0.084182    1.622892
C     -1.190505   -2.034867   -0.002560
C     -0.893574   -0.709005   -1.921733
C      1.933173    0.267765   -0.868960
C      1.245145    0.197909    0.457611
C     -0.983578    0.251048    1.607228
C     -0.789118   -0.831439   -0.539111
C     -0.595527    1.587110   -0.320362
C     -0.264641    0.252908    0.298579
N      3.362142    0.386043   -0.730565
O      0.296853    2.375946   -0.521904
Cl     0.686916    0.000000    0.000000
H     -1.438586    4.087195   -0.818748
H     -1.588909    3.205054   -2.361119
H     -3.098545    3.618775   -1.459661
H      2.494796   -0.777907    1.969142
H      0.847941   -1.371894    1.910852
H      1.967685   -1.870138    0.650351
H      3.905544    1.988989   -1.927925
H      3.189964    0.635288   -2.842398
H      4.920918    0.542485   -2.161191
H      5.096673   -0.810769   -0.970140
H      3.519055   -1.731713   -1.003509
H      4.204453   -1.064502    0.521624
H     -2.621669    1.968677    0.232881
H     -2.439977    1.233954   -1.368555
H     -3.039145    0.183141    4.941050
H     -2.140112   -3.721045   -2.798064
H     -0.663069    0.784055    4.948550
H     -4.106129   -0.371305    2.797627
H     -1.992085   -4.024391   -0.362820
H     -1.445464   -1.627072   -3.777082
H      0.643378    0.828584    2.839893
H     -2.834462   -0.346471    0.681358
H     -1.165381   -2.251011    1.057372
H     -0.600054    0.187422   -2.427554
H      1.739490   -0.767322   -1.348187
H      1.516590    0.952067   -1.610784
H      1.551857    1.109684    1.042590
H     -0.686916    0.000000    0.000000
