52

C     -1.549568    0.751599    3.886065
C      1.801780   -1.253173    1.034766
C      4.152234    1.876264   -0.311994
C      3.391079    0.069612   -1.640398
C     -1.774318    0.274421    2.440313
C     -2.066482    2.580689   -2.452673
C     -2.422694   -3.797497   -0.660449
C     -1.903385    2.935099   -1.130025
C     -1.656491    1.350461   -2.878987
C     -1.049989   -3.747294   -0.779880
C     -3.058176   -2.652936   -0.228039
C     -1.326227    2.038251   -0.253735
C     -1.072739    0.453828   -1.974270
C     -0.360666   -2.596611   -0.475695
C     -2.362415   -1.510667    0.072499
C      1.941452    0.983251    0.043533
C      1.202820   -0.311677    0.052007
C     -0.900899    0.788830   -0.648090
C     -0.996515   -1.468955   -0.047146
C     -0.523953    0.199149    1.691373
C     -0.274347   -0.195739    0.289272
N      3.327682    0.691101   -0.331968
O      0.461928    0.532639    2.404289
Cl     0.689856    0.000000    0.000000
H     -1.899248    1.819447    4.008753
H     -2.036555    0.093579    4.606796
H     -0.451132    0.770905    4.053262
H      2.585457   -1.860166    0.529730
H      2.338984   -0.613198    1.807244
H      1.136303   -1.881179    1.608722
H      5.175222    1.546206   -0.600216
H      3.769479    2.695400   -0.919589
H      4.252797    2.207364    0.764279
H      2.558922    0.317013   -2.297297
H      3.483685   -1.021852   -1.491740
H      4.386064    0.376742   -2.075872
H     -2.562083    0.917977    2.082692
H     -2.188803   -0.765304    2.585081
H     -2.528476    3.312862   -3.131284
H     -2.941664   -4.717036   -0.905919
H     -2.227595    3.907831   -0.792932
H     -1.778963    1.055162   -3.924764
H     -0.495602   -4.642712   -1.124254
H     -4.142838   -2.725374   -0.144614
H     -1.212661    2.357553    0.773092
H     -0.775788   -0.499537   -2.395230
H      0.719694   -2.612446   -0.610228
H     -2.940609   -0.620368    0.391388
H      1.871984    1.613254    0.922523
H      1.597170    1.662120   -0.803381
H      1.326147   -0.684888   -1.017007
H     -0.689856    0.000000    0.000000
