52

C     -2.507486    0.305431    3.756001
C      2.857733   -1.825240    0.745176
C      3.125337    0.858331   -0.137821
C      2.896330   -0.668997   -1.965039
C     -1.287900    0.445986    2.876807
C     -2.057874   -2.731430   -2.551687
C     -0.756457    4.024259   -0.906485
C     -1.346914   -1.619286   -2.943760
C     -2.322859   -3.004852   -1.230763
C      0.175314    3.633604    0.020953
C     -1.606886    3.065465   -1.384982
C     -0.890358   -0.757290   -1.977263
C     -1.833118   -2.091605   -0.282972
C      0.248935    2.330472    0.449533
C     -1.528442    1.751346   -0.949102
C      0.604311   -0.703858    0.949698
C      1.692786   -1.097453    0.029582
C     -1.126985   -0.978633   -0.636084
C     -0.588141    1.340935   -0.010672
C     -1.622401   -0.053600    1.532416
C     -0.589765   -0.044242    0.409403
N      2.290048   -0.106370   -0.770307
O     -2.719503   -0.476016    1.306542
Br     0.764821    0.000000    0.000000
H     -3.365613    0.734875    3.160175
H     -2.751841   -0.771229    3.865998
H     -2.397320    0.825576    4.725120
H      2.514783   -2.792284    1.152394
H      3.217323   -1.219346    1.599239
H      3.636934   -1.999460    0.004543
H      3.038051    0.894158    0.970931
H      2.923273    1.879980   -0.516718
H      4.213616    0.656254   -0.329767
H      3.989408   -0.810087   -1.837748
H      2.676058    0.018069   -2.802086
H      2.480623   -1.675953   -2.190293
H     -1.023372    1.531131    2.831564
H     -0.441862   -0.067436    3.350955
H     -2.424886   -3.420081   -3.303892
H     -0.840665    5.026991   -1.261101
H     -1.152090   -1.430261   -4.005597
H     -2.885021   -3.883950   -0.913865
H      0.861142    4.392179    0.411396
H     -2.363328    3.363891   -2.131958
H     -0.304571    0.128738   -2.226865
H     -2.034638   -2.370650    0.746390
H      0.995942    2.094534    1.202765
H     -2.272418    1.099164   -1.390639
H      0.227239   -1.684161    1.397830
H      1.041846   -0.200692    1.849632
H      1.335682   -1.916911   -0.687576
H     -0.764821    0.000000    0.000000
