53

C     -3.040787    0.886931    0.193351
C      3.232501   -0.800373   -0.221233
C      2.289184   -1.443476   -1.001255
C      2.879779    0.376866    0.413609
C      1.025379   -0.902017   -1.129351
C      1.601197    0.897976    0.266579
C     -0.723455    0.822481   -0.669259
C     -1.662282    0.295166    0.395191
C      0.645851    0.266781   -0.510246
N     -1.812626   -1.151230    0.292279
C     -1.878356    1.078554   -0.318890
C      3.093297    0.777612   -0.413859
C      2.208420    0.964207   -1.432757
C      2.750386   -0.007917    0.665117
C      0.981697    0.364568   -1.370619
C      1.513802   -0.604410    0.714071
C     -0.716950   -1.080791   -0.227824
C     -1.724510   -0.205525    0.456638
C      0.604805   -0.423602   -0.313914
N     -3.014516   -0.879021    0.437806
O     -0.136465    1.446980   -0.127701
O     -0.572564   -1.296558   -0.110992
O      1.553271   -0.266017   -1.096524
O      1.188942   -0.161817    1.360212
S      0.573184   -0.070294    0.002894
H     -2.970164    1.983355    0.167839
H     -3.400339    0.582278   -0.828043
H     -3.757054    0.504138    0.918797
H      4.231972   -1.197811   -0.099804
H      2.593249   -2.362855   -1.486127
H      3.616306    0.877966    1.021956
H      0.331018   -1.447958   -1.750942
H      1.362884    1.818496    0.777278
H     -0.704453    1.919564   -0.591133
H     -1.165116    0.549114   -1.657053
H     -1.318016    0.513221    1.414163
H     -2.324585   -1.324860   -0.599684
H     -0.930441   -1.663752    0.395012
H     -0.906658    1.610018   -0.386818
H     -2.189163    0.781925   -1.363725
H     -2.679398    1.724222    0.094842
H      4.050991    1.254079   -0.476689
H      2.439402    1.572799   -2.296076
H      3.445425   -0.164042    1.481862
H      0.281475    0.520735   -2.191536
H      1.247670   -1.213994    1.551375
H     -1.076549   -1.238854   -1.271252
H     -0.653435   -2.078545    0.270808
H     -1.465785    0.016324    1.509280
H     -2.966668   -1.840481    0.805776
H     -3.345381   -0.927859   -0.568091
H     -1.119542    1.296397   -0.014045
H     -1.486825   -0.948693   -0.013844
