39

C      3.852850   -0.367532    0.481589
C      2.627448    1.413611   -0.640967
C     -2.363452    2.290242   -1.259230
C     -2.553896   -1.488409   -0.528976
C     -2.588914    1.092684    0.870314
C     -2.102055    0.076636    1.814814
C      1.269446   -1.270134   -0.735008
C     -0.077578   -1.968422   -0.688828
C      2.585579    0.459858    0.526769
C     -1.948977    1.256964   -0.277900
C      1.358532   -0.417133    0.497963
C     -0.933307   -0.679361    1.265422
C      0.088738    0.322724    0.718257
C     -0.794461    0.350383   -0.528623
C     -1.167147   -1.068618   -0.199600
H      4.487981   -0.116731   -0.390413
H      4.434160   -0.256908    1.439891
H      3.578547   -1.440211    0.418861
H      2.763432    0.905025   -1.607696
H      3.481554    2.101789   -0.471905
H      1.708922    2.034721   -0.634762
H     -1.680051    3.143896   -1.186866
H     -2.329436    1.889657   -2.295082
H     -3.381616    2.632822   -1.000819
H     -2.545603   -2.571320   -0.798482
H     -2.970176   -0.968835   -1.424249
H     -3.248068   -1.406041    0.342763
H     -3.452502    1.699324    1.099954
H     -1.723502    0.636128    2.720499
H     -2.889320   -0.584922    2.183159
H      1.409823   -0.696026   -1.669897
H      2.040338   -2.083635   -0.756802
H     -0.318710   -2.261462   -1.725895
H      0.032594   -2.903065   -0.090333
H      2.571656    1.033965    1.453971
H      1.478071   -1.133697    1.364110
H     -0.534090   -1.458292    1.898671
H      0.123444    1.259369    1.281299
H     -0.290254    0.540956   -1.465973
