28

C     -2.178805    0.256115    1.411178
C      0.860979   -0.957949    1.029677
C      2.139224   -0.519466    1.301366
C      0.840153    0.170586   -1.028846
C     -2.255124   -0.124742   -0.037542
C      0.176925   -0.634528   -0.125103
C      2.759952    0.273626    0.383974
C      2.120588    0.625522   -0.785089
C     -1.178989   -1.126161   -0.365294
N     -2.246241    1.040592   -0.845349
O      4.047096    0.718268    0.651949
O      2.780496    1.443339   -1.714587
O     -1.270016   -1.589779   -1.673498
Cl     0.685022    0.000000    0.000000
H     -1.108601    0.435023    1.717539
H     -2.604344   -0.558859    2.008491
H     -2.740043    1.209372    1.560362
H      0.367675   -1.586576    1.755775
H      2.599800   -0.823792    2.235430
H      0.375746    0.475603   -1.967334
H     -3.235370   -0.650261   -0.207201
H     -1.378183   -2.020930    0.289984
H     -2.309075    0.910101   -1.855003
H     -1.710424    1.838516   -0.510517
H      4.541240    0.477149    1.499726
H      2.342197    1.719507   -2.579117
H     -1.736855   -1.000274   -2.283280
H     -0.685022    0.000000    0.000000
