54

C     -3.760537    1.878839   -0.156047
C     -3.253601   -1.855141    1.908193
C     -1.843375   -2.951336    0.101527
C     -7.911586    2.883548    0.659167
C      7.150809    2.563566    0.949008
C      6.871670    1.560293    1.833956
C      6.948745    2.346217   -0.388669
C      6.392554    0.347037    1.375128
C      6.463206    1.115489   -0.848944
C     -4.462011   -0.403147   -0.189975
C      5.671926   -1.201206   -0.390202
C      3.405371   -0.973524   -1.541548
C      2.120330   -1.580517    0.120343
C      0.916461   -0.950123   -2.101750
C     -4.831348    0.857894   -0.035379
C      6.179674    0.099983    0.036094
C      2.065976   -1.168393   -1.185934
C      4.188162   -1.274018   -0.446223
C     -3.085957   -0.774386   -0.462827
C     -1.923908   -0.357288    0.327561
C     -6.220234    1.218842    0.239102
C     -0.637196   -0.268769   -0.403329
C     -2.474960   -1.704053    0.616436
O     -7.128514    0.362272    0.342069
O      0.204074    0.591004   -0.050188
O     -6.563051    2.549886    0.393842
O      3.385869   -1.628846    0.515498
O     -0.313493   -1.091858   -1.463340
H     -2.932831    1.587806   -0.796629
H     -3.476206    2.255220    0.845130
H     -4.249199    2.762864   -0.663693
H     -3.683289   -0.844180    2.133063
H     -4.085460   -2.569961    1.823541
H     -2.555618   -2.080090    2.739355
H     -2.149249   -3.831050    0.713628
H     -2.277299   -3.162136   -0.918889
H     -0.756690   -2.898342   -0.050539
H     -8.396290    3.376331   -0.223663
H     -8.516855    2.023117    0.989613
H     -7.895956    3.624850    1.485844
H      7.528281    3.515841    1.324447
H      7.031653    1.731266    2.897415
H      7.176323    3.153781   -1.069781
H      6.183450   -0.417423    2.088223
H      6.322919    0.996329   -1.901038
H     -5.214233   -1.200196   -0.110870
H      6.058044   -2.002346    0.286276
H      6.125825   -1.434346   -1.390923
H      3.767789   -0.645982   -2.502002
H      1.244598   -1.824046    0.717322
H      1.052704   -1.666025   -2.944225
H      1.053010    0.061228   -2.555016
H     -2.904318   -1.090782   -1.521979
H     -2.006160    0.386007    1.154168
