52

C      5.409448   -0.703524    1.395894
C      1.621120    3.137877   -2.276548
C      2.906377    2.627231   -2.149819
C     -4.141367   -0.379073    0.148129
C      0.530634    2.562238   -1.660651
C      3.096303    1.498308   -1.375930
C     -3.327854   -1.351854   -0.659805
C     -1.056561   -1.880822   -1.446795
C      0.379670   -1.681671   -1.089608
C     -3.731879    1.040047   -0.039418
C     -1.798255    1.518170    1.318073
C     -1.495573   -1.580565    0.913010
C      0.734928    1.420843   -0.880276
C     -0.359737    1.079418    1.316633
C      2.000160    0.902375   -0.744632
C     -0.107129   -0.095538    2.174815
C     -1.505910    0.361220   -0.671432
C      3.051510   -0.773253    0.776020
C     -1.879736   -1.083171   -0.438718
C     -0.028761   -1.268814    1.271829
C      0.602356   -0.713316    0.048634
C     -0.162438    0.585022   -0.103277
N     -2.341049    1.291888    0.020636
N      1.932160   -0.270787    0.097956
O      0.012193   -0.107423    3.365389
O      3.017528   -1.803953    1.505011
O      0.574590   -2.368841    1.833353
O      4.310381   -0.160805    0.694739
H      5.150920   -1.715890    1.766989
H      6.249365   -0.827555    0.681314
H      5.721077   -0.049824    2.235557
H      1.441124    4.016392   -2.872946
H      3.707515    3.138354   -2.665399
H     -4.097368   -0.689089    1.206322
H     -5.203406   -0.470611   -0.208365
H     -0.477716    2.934446   -1.739683
H      4.093147    1.100478   -1.276378
H     -3.556408   -2.367588   -0.278954
H     -3.554397   -1.326095   -1.740687
H     -1.286228   -1.501298   -2.481929
H     -1.363212   -2.950459   -1.458487
H      1.009728   -1.389300   -1.955752
H      0.778643   -2.662822   -0.745781
H     -4.150731    1.409653   -1.017198
H     -4.233509    1.648758    0.752367
H     -2.390000    1.098335    2.151302
H     -1.787719    2.632942    1.484645
H     -1.555079   -2.696256    0.882437
H     -2.165409   -1.251807    1.718613
H      0.347685    1.906769    1.553463
H     -1.529989    0.518297   -1.775658
H      0.608855   -2.307055    2.821400
