38

C     -4.691958    1.013797    1.026126
C     -4.219764   -1.185397   -0.071863
C      1.343682   -1.858024    1.096818
C      2.748447    1.893203   -1.592218
C      4.056837    1.489200   -1.514786
C     -2.084990    1.036280   -0.322383
C      5.190525   -1.651427   -0.176601
C     -3.813934   -0.220392    0.998755
C      1.739248    1.166447   -0.964140
C     -0.609104    0.878132   -0.431941
C      4.318379    0.340848   -0.792154
C     -2.392397    0.230953    0.895124
C      2.013147    0.020082   -0.244537
C      0.420562    1.567846   -1.038446
C      3.331924   -0.385090   -0.167755
C     -0.283459   -0.261007    0.275370
N      1.009429   -0.654490    0.348172
O      0.166040    2.607078   -1.689899
O      5.532308   -0.318568   -0.532486
O      3.944336   -1.454966    0.452627
O     -1.462158   -0.816451    0.814607
H     -4.346978    1.789137    0.309965
H     -4.689501    1.491870    2.029030
H     -5.709465    0.696701    0.738182
H     -5.034951   -1.839228    0.312102
H     -3.405961   -1.821140   -0.434526
H     -4.699562   -0.595145   -0.905565
H      0.425728   -2.364836    1.455689
H      1.885913   -2.597484    0.473554
H      1.917642   -1.581399    2.010342
H      2.518960    2.789371   -2.152466
H      4.827783    2.064589   -2.007983
H     -2.537775    0.662252   -1.246952
H     -2.280552    2.119960   -0.190536
H      5.037595   -2.292445   -1.066860
H      5.923602   -2.077961    0.543699
H     -3.935302   -0.723253    1.980801
H     -2.154279    0.840956    1.783136
