59

C     -2.111977    0.503439    1.659657
C      2.011933    0.572512    1.485418
C     -2.488418   -1.916576    0.058628
C     -1.033333   -2.121924   -0.145610
C     -4.057442    1.723038   -0.918912
C      0.202337    1.434491   -0.473723
C      1.922242   -2.175096    0.860807
C     -2.690882    1.859456   -0.278755
C      1.583008    0.980063   -0.901210
C      3.399171   -1.867423    0.575895
C     -4.385949   -0.423786    0.299689
C      5.517645    0.806937   -0.864537
C     -3.002907   -0.573445   -0.325448
C     -5.000619    0.876425   -0.106154
C     -0.193382   -0.921190    0.311488
C     -0.733084    0.264834   -0.421903
C      1.217817   -1.250311   -0.053868
C      4.559824    0.302490    0.150322
C     -2.081390    0.565734    0.126621
C      2.078732    0.011578    0.104674
C      3.432290   -0.579267   -0.202164
O      6.483471    1.616051   -0.272851
O     -5.559564    1.538716    0.964789
O      4.718943    0.633095    1.307970
O      3.444843   -0.829576   -1.592691
H     -1.305675    1.120990    2.105546
H     -3.063440    1.016213    1.989854
H     -2.177103   -0.515061    2.038232
H      2.367236    1.632092    1.431174
H      2.660266   -0.017672    2.197697
H      1.022943    0.595385    1.937960
H     -2.805670   -2.212446    1.098947
H     -3.019916   -2.665608   -0.599625
H     -0.702793   -2.967324    0.509582
H     -0.764815   -2.407480   -1.177352
H     -3.992474    1.372722   -1.965512
H     -4.490269    2.747694   -0.963159
H      0.228932    2.031755    0.454784
H     -0.130892    2.109197   -1.317797
H      1.754125   -1.875289    1.914384
H      1.728353   -3.247542    0.678604
H     -2.093826    2.469511   -0.984677
H     -2.851950    2.542750    0.607483
H      1.425839    0.423264   -1.871166
H      2.256961    1.820257   -1.109019
H      3.985134   -1.809699    1.515046
H      3.785081   -2.662743   -0.097168
H     -4.287789   -0.501324    1.399083
H     -4.963730   -1.308243   -0.047970
H      4.977186    1.376689   -1.658291
H      6.082277   -0.057501   -1.322048
H     -3.081448   -0.479856   -1.427624
H     -5.857543    0.622648   -0.798373
H     -0.278201   -0.879628    1.396475
H     -0.881190   -0.065144   -1.493316
H      1.306375   -1.538833   -1.108920
H      7.138705    1.095510    0.226818
H     -5.481908    2.520058    0.926561
H      4.277906   -1.315607   -1.781165
