53

C     -3.580725    3.430799   -1.386981
C      2.187744   -3.408366   -2.211956
C     -4.936063   -3.056061   -0.642579
C      3.499493    0.808518   -1.193449
C      4.227163   -0.404563    0.783197
C      4.800735    1.244959   -1.370836
C      5.527400    0.035347    0.600469
C     -3.722646   -2.468146   -0.424943
C     -5.918606   -1.475205    0.901968
C     -4.207733    0.240805    1.966162
C     -0.846576    1.139976    2.150380
C     -4.696202   -0.878258    1.125416
C     -6.022779   -2.537979    0.036280
C      3.272130   -0.006561   -0.109922
C      5.790386    0.848503   -0.468193
C     -3.601170   -1.395414    0.444869
C     -2.415558   -0.632732    0.803696
C     -3.457735    1.456160    0.047416
C      1.097019    0.330647    0.890608
C      1.540296   -1.605420   -0.672640
C     -2.967562    0.688225    1.240178
C      7.535214    2.498136   -0.118148
Cl    -7.611484   -3.255681   -0.205056
F      7.473779    2.480793    1.244605
F      6.723371    3.553432   -0.542143
F      8.830736    2.695045   -0.589894
N     -1.125222   -0.830090    0.819247
N     -0.256418    0.172719    1.244584
N      1.889173   -0.448945    0.048624
O     -4.255597    0.903413   -0.746660
O      1.720518    1.349825    1.416123
O      0.411465   -2.149984   -0.676641
O     -3.071680    2.757224   -0.226278
O      2.524424   -2.242580   -1.479452
O     -2.134407    1.472574    1.941835
O      7.075880    1.302521   -0.676012
H     -2.748666    3.847845   -1.996238
H     -4.217853    4.287671   -1.099443
H     -4.202528    2.743123   -1.993588
H      2.760015   -4.250546   -1.770582
H      1.096354   -3.559011   -2.151597
H      2.551415   -3.256127   -3.243381
H     -5.105870   -3.899761   -1.310014
H      2.694761    1.089867   -1.868672
H      3.956767   -1.055273    1.617288
H      5.009512    1.886557   -2.213408
H      6.296101   -0.280815    1.313901
H     -2.852823   -2.868299   -0.954634
H     -6.775159   -1.064717    1.438963
H     -3.874969   -0.137459    2.964606
H     -4.962631    1.043385    2.078451
H     -0.682372    0.772545    3.197656
H     -0.240818    2.087378    2.026818
