49

C     -2.705506    2.035265    0.371734
C     -2.032856    0.353353    2.032665
C     -4.337211    0.348606    1.251575
C     -2.438883   -2.301302   -0.116615
C     -3.844039   -0.302401   -1.875521
C      4.155373    1.977771    2.233156
C      3.586328    0.827277    2.720983
C      4.170816    2.212388    0.883128
C      3.027368   -0.098297    1.855885
C      3.613788    1.289894    0.021812
C      1.538672   -0.603699   -2.659353
C      3.463899   -1.307588   -1.458355
C      0.050303   -0.548648   -0.648400
C      3.044470    0.139098    0.508201
C      1.383013   -0.154154   -1.248377
C      2.574510   -1.664082   -2.594828
C      2.454032   -0.835800   -0.424252
C     -2.903501    0.595835    0.839057
O      2.665490   -2.613552   -3.319853
O     -1.021582   -0.009573   -1.346898
Si    -2.477723   -0.503850   -0.604176
H     -3.697831    2.376164   -0.017604
H     -1.915561    2.101513   -0.415515
H     -2.371270    2.693941    1.199336
H     -1.723898   -0.705890    2.139720
H     -2.625275    0.594802    2.944069
H     -1.163151    1.056806    2.053278
H     -4.488116    0.885665    2.209787
H     -4.427165   -0.730515    1.471284
H     -5.067661    0.701640    0.500344
H     -1.853499   -2.481051    0.800259
H     -3.476717   -2.652904   -0.057286
H     -1.954925   -2.853882   -0.949087
H     -4.163023    0.746271   -1.892693
H     -3.517515   -0.665691   -2.874843
H     -4.694531   -0.968354   -1.582888
H      4.596497    2.708006    2.917211
H      3.587596    0.668546    3.779991
H      4.610230    3.103559    0.488325
H      2.590626   -0.993049    2.307569
H      3.644824    1.510369   -1.041450
H      0.576114   -0.982579   -3.068211
H      1.889293    0.279202   -3.257420
H      4.112537   -0.449148   -1.690222
H      4.013910   -2.184036   -1.064938
H      0.075049   -0.199282    0.402690
H     -0.018618   -1.654710   -0.717522
H      1.454719    0.961621   -1.143425
H      2.040598   -1.703553    0.137674
