72

C     -3.736932    2.722319    3.263199
C     -6.352445   -1.679359   -0.187560
C     -4.780292   -3.132216    1.100347
C      1.784197   -2.775841   -0.020493
C      1.117151   -2.019497   -3.667888
C      5.740386    1.963683    0.141741
C      5.118387   -0.402832    0.739577
C      5.106248    0.343301   -1.570902
C      2.973770    2.924281   -1.024160
C      2.743501    1.826004    1.743188
C     -4.473933    2.521623    1.987326
C     -4.079493    1.284503    1.205111
C     -1.909107    2.469508    1.013811
C     -2.076351   -1.922607   -0.774956
C     -4.928641   -2.064558    0.001611
C      1.960313   -2.040787   -1.298570
C      1.174364   -2.750536   -2.370288
C     -2.678903    1.335271    0.783329
C     -2.737908   -0.883470   -0.129578
C     -0.735881   -1.832366   -1.149920
C     -0.582638    2.458920    0.599891
C     -2.031703    0.280787    0.145325
C     -0.058051   -0.683311   -0.870524
C      1.387530   -0.598021   -1.228416
C     -0.687768    0.348863   -0.241822
C      4.864356    0.773993   -0.142834
O      0.136686    3.500657    0.809321
O     -4.069295   -0.992394    0.236857
O     -0.138102   -2.923128   -1.799580
O     -0.020565    1.466111    0.015944
O      2.119915    0.251236   -0.687824
Si     3.022327    1.301539   -0.035968
H     -4.396807    2.492772    4.159354
H     -2.845588    2.118982    3.420006
H     -3.563427    3.835341    3.387171
H     -6.789829   -1.293517    0.758312
H     -6.893618   -2.582310   -0.543957
H     -6.411857   -0.862488   -0.931083
H     -5.639591   -3.111366    1.799416
H     -4.738222   -4.156489    0.675736
H     -3.879524   -2.870624    1.660531
H      2.728059   -2.845809    0.585510
H      0.938648   -2.407363    0.566566
H      1.542741   -3.845070   -0.268251
H      0.218382   -1.374550   -3.775427
H      2.069710   -1.478100   -3.876336
H      1.040807   -2.755218   -4.518074
H      5.835128    2.621644   -0.751006
H      6.755839    1.577425    0.368768
H      5.365822    2.594546    0.970309
H      6.198743   -0.654430    0.638492
H      4.570839   -1.276120    0.345444
H      4.942845   -0.223494    1.819110
H      5.697771   -0.618502   -1.602121
H      4.146594    0.117964   -2.056188
H      5.600161    1.124206   -2.174173
H      3.944756    3.087100   -1.486997
H      2.204840    2.857262   -1.835473
H      2.717788    3.749187   -0.343707
H      3.027169    2.884575    1.915727
H      1.737822    1.669614    2.111060
H      3.419705    1.210772    2.371139
H     -4.473830    3.425406    1.330873
H     -5.565501    2.386392    2.242476
H     -4.266765    0.452866    1.950074
H     -4.791922    1.233785    0.356603
H     -2.271782    3.353637    1.474974
H     -2.640459   -2.817706   -0.976078
H     -4.574045   -2.602494   -0.912838
H      2.996093   -1.930882   -1.603617
H      1.554433   -3.783527   -2.532360
H      1.316946   -0.375093   -2.355255
