44

C      5.965729   -1.097193   -1.627495
C     -3.811387   -1.633737   -1.252585
C     -2.333618   -1.358752   -1.171862
C      2.932676    0.096992    1.911307
C      2.478935    0.726238   -0.301435
C     -1.531116    1.243170    1.985163
C      4.099412   -0.516269    1.486509
C      3.627625    0.126910   -0.746715
C     -2.352911    1.695676    0.792238
C     -4.598994   -0.336497   -1.337482
C      0.847606    1.386247    1.494169
C     -0.631475   -0.106576    0.128812
C      2.093568    0.734354    1.022156
C     -0.332114    0.448752    1.481549
C     -2.056444   -0.638158    0.134379
C      4.465008   -0.512951    0.163788
C     -3.075683    0.449377    0.280170
N     -3.762831    0.768883   -0.937943
O      5.649877   -1.138767   -0.249183
H      6.915576   -1.592671   -1.857767
H      5.114916   -1.571041   -2.170951
H      5.976425   -0.032143   -1.948824
H     -4.048480   -2.196501   -2.195321
H     -4.199697   -2.212839   -0.396888
H     -2.069923   -0.701443   -2.009781
H     -1.808103   -2.317911   -1.233831
H      2.659515    0.085619    2.953745
H      1.839170    1.218735   -1.019228
H     -2.207659    0.599990    2.596883
H     -1.217999    2.154717    2.537644
H      4.762049   -1.017785    2.177634
H      3.948565    0.108441   -1.777777
H     -1.726963    2.121697   -0.006777
H     -3.066949    2.471397    1.134474
H     -4.995390   -0.155093   -2.352029
H     -5.468626   -0.365499   -0.649171
H      0.944465    1.785106    2.527147
H      0.575876    2.250813    0.833759
H     -0.459656    0.598231   -0.702019
H      0.023500   -0.997160   -0.070158
H     -0.164800   -0.407210    2.174592
H     -2.122231   -1.397664    0.933950
H     -3.789463    0.168817    1.085799
H     -3.087979    1.063702   -1.655774
