41

C      0.049942   -2.604125    0.600258
C      5.696483    0.416631   -0.182676
C     -3.819336   -1.147925    0.061144
C     -2.403838   -1.565580    0.187263
C      4.806898   -0.521214   -0.634970
C      5.216795    1.654919    0.134343
C     -3.862641    0.292829   -0.379247
C      0.738150    1.125531    0.685141
C     -1.415620   -0.746459   -0.062828
C      0.695281   -0.317456    1.104629
C      3.439301   -0.253916   -0.780622
C      3.873905    1.934644   -0.003063
C      1.526229    1.364731   -0.579927
C     -5.294808    0.781369   -0.524581
C      0.023057   -1.192754    0.071953
C      2.951710    0.987989   -0.463643
O     -5.293992    2.102960   -0.928666
H      1.134834   -2.874718    0.747897
H     -0.406010   -3.324406   -0.110480
H     -0.471683   -2.642881    1.564405
H      6.756519    0.233646   -0.061993
H     -4.364271   -1.799381   -0.639167
H     -4.264891   -1.204294    1.079304
H     -2.201082   -2.600766    0.502037
H      5.194352   -1.495878   -0.882826
H      5.904496    2.424100    0.498146
H     -3.348905    0.378083   -1.373470
H     -3.365682    0.935079    0.357923
H      1.195813    1.724701    1.519971
H     -0.291792    1.525038    0.546664
H     -1.600502    0.266383   -0.371162
H      0.150150   -0.413125    2.050077
H      1.730845   -0.640674    1.287438
H      2.800252   -1.041069   -1.144980
H      3.485001    2.907065    0.243818
H      1.411152    2.448058   -0.823727
H      1.024895    0.822673   -1.415938
H     -5.779524    0.166760   -1.325222
H     -5.846455    0.603384    0.405077
H      0.466162   -1.093902   -0.923066
H     -6.241190    2.383947   -1.076027
