30

C     -4.738561    0.416597   -1.233040
C     -4.741657    0.451353    0.149200
C     -3.541842    0.170119   -1.888411
C      4.055583    1.642831   -0.624655
C     -3.547576    0.238683    0.841329
C     -2.353797   -0.041295   -1.192384
C      2.741406    1.330748   -0.284572
C      5.058714    0.747723   -0.393178
C      3.461388   -0.764035    0.510860
C     -0.690589   -1.655817    0.970622
C     -2.363795   -0.005417    0.181498
C      2.430478    0.117588    0.289557
C      4.777413   -0.463551    0.175513
C     -1.150012   -0.218367    0.993810
C      1.048595   -0.225134    0.653457
I      6.340243   -1.826848    0.522566
N     -0.007285    0.494406    0.506253
O      0.709576   -1.461468    1.241421
H     -5.619551    0.571240   -1.835317
H     -5.677836    0.643987    0.654303
H     -3.542526    0.143586   -2.967029
H      4.241175    2.605083   -1.070530
H     -3.567510    0.269604    1.937268
H     -1.424071   -0.232514   -1.690661
H      1.942997    2.035297   -0.465375
H      6.076600    1.006804   -0.664101
H      3.274668   -1.721279    0.954748
H     -1.168155   -2.272058    1.728641
H     -0.729649   -2.081126   -0.054031
H     -1.294426    0.083258    2.052236
