41

C     -4.472816    2.997545    0.422073
C      5.713673    0.657259   -1.216689
C      5.761307   -0.493535   -0.495684
C      4.525295    1.358133   -1.238150
C     -4.204383   -0.683713   -1.633664
C      4.686737   -0.982123    0.205205
C      3.433450    0.886022   -0.541207
C     -3.099012   -1.481571   -1.457272
C     -4.271330    0.517954   -0.951003
C     -0.905855   -1.943314   -0.429833
C     -0.519395   -1.794064    1.017377
C     -1.118251    0.584121    0.959682
C      2.309300   -0.805268    0.956716
C      3.483360   -0.278856    0.188175
C     -2.096570   -1.091075   -0.627736
C     -0.039528   -0.417157    1.278178
C     -2.158989    0.096700    0.049322
C     -3.270793    0.924429   -0.112741
N      1.160909   -0.025805    0.591896
O     -3.371005    2.131681    0.554222
H     -4.877289    3.047094   -0.601510
H     -4.167076    4.040826    0.698792
H     -5.271946    2.710689    1.141960
H      6.567906    1.049804   -1.776268
H      6.692526   -1.039855   -0.479414
H      4.404781    2.281819   -1.788691
H     -4.985359   -1.002139   -2.289475
H      4.706546   -1.895088    0.784636
H      2.501049    1.434857   -0.551561
H     -3.076287   -2.428186   -2.012730
H     -5.177307    1.108062   -1.133347
H     -1.091344   -3.001855   -0.711282
H     -0.087212   -1.505463   -1.040330
H     -1.464224   -1.924555    1.622033
H      0.165045   -2.592129    1.361542
H     -0.685868    1.516363    0.493095
H     -1.614118    0.962319    1.892430
H      2.494379   -0.818666    2.027878
H      2.182372   -1.871597    0.641233
H      0.202448   -0.304306    2.380141
H      1.034872    0.074644   -0.435457
