31

C      3.216301    1.197664    1.276700
C     -3.232820    2.149185    0.946541
C     -2.496360   -1.993313    0.258639
C     -1.284801   -2.370765   -0.287279
C     -2.761901   -0.653766    0.492080
C      0.907552   -1.853396   -1.210166
C      1.876927   -0.727006   -1.438192
C      0.412947    1.002642   -0.591620
C     -0.361176   -1.368306   -0.584654
C      1.713719    0.239456   -0.293600
C     -0.636241   -0.052635   -0.345871
C     -1.843656    0.326096    0.198083
N      2.851580    1.069923   -0.143410
O     -2.031635    1.659742    0.404067
H      4.143824    0.656721    1.505632
H      2.390273    0.792524    1.904612
H      3.400377    2.270844    1.500299
H     -3.332308    1.837133    2.021507
H     -4.139032    1.857970    0.381880
H     -3.190233    3.284821    1.011708
H     -3.241097   -2.731122    0.516451
H     -1.099605   -3.422640   -0.437578
H     -3.714973   -0.377833    0.925170
H      0.700691   -2.400301   -2.182527
H      1.399834   -2.574949   -0.504894
H      1.539626   -0.173854   -2.363303
H      2.912554   -1.037746   -1.581900
H      0.341122    1.803032    0.191677
H      0.406932    1.353137   -1.603136
H      1.483547   -0.364901    0.634400
H      3.668032    0.601642   -0.601318
