31

C      3.529131    1.286114    0.652056
C     -3.242902    2.502421   -0.049329
C     -2.800229   -1.769299   -0.554952
C     -1.540238   -2.290499   -0.393206
C     -2.954696   -0.390811   -0.393875
C      0.839723   -2.149861    0.069407
C      2.002466   -1.225528    0.275704
C      0.567250    0.719547    0.405813
C     -0.464716   -1.456452   -0.079635
C      1.689951    0.094915   -0.386973
C     -0.632671   -0.095538    0.075672
C     -1.892742    0.422429   -0.085754
N      2.850644    0.870789   -0.508291
O     -2.057707    1.780417    0.071270
H      4.627269    1.089136    0.484836
H      3.223635    0.668872    1.510473
H      3.479211    2.371314    0.865605
H     -3.259893    3.403658    0.617043
H     -4.168412    1.926221    0.157135
H     -3.280192    2.916780   -1.098744
H     -3.629419   -2.408152   -0.796807
H     -1.402121   -3.374449   -0.517261
H     -3.954155   -0.025660   -0.528358
H      1.052589   -2.785072   -0.816062
H      0.730354   -2.817810    0.962881
H      2.141567   -1.048809    1.358453
H      2.955476   -1.644333   -0.127538
H      0.396290    1.791354    0.154647
H      0.736853    0.627316    1.498052
H      1.264229   -0.135947   -1.400565
H      3.193456    1.146938   -1.421695
