33

C     -3.867038    1.481978   -0.015605
C     -3.925270    0.436780   -0.924749
C     -2.809555    1.530071    0.882047
C      4.124976    1.790197   -1.171424
C     -2.944283   -0.539250   -0.933679
C     -1.831822    0.536918    0.856357
C      2.872047    1.290116   -1.449528
C      4.768933    1.423760    0.016230
C      2.922741    0.072962    0.635208
C     -1.058162   -2.334548    1.239151
C     -1.910695   -0.484195   -0.049672
C      2.285905    0.426221   -0.524028
C      4.158323    0.567720    0.906770
C     -0.851809   -1.525263   -0.049036
C      0.963442   -0.121981   -0.783479
I      5.138149    0.031308    2.678445
N      0.426701   -0.903866    0.048612
O     -2.305848   -2.954051    1.167906
O      0.287986    0.211190   -1.943525
H     -4.639434    2.245950   -0.012301
H     -4.742889    0.369799   -1.643357
H     -2.747734    2.339123    1.599379
H      4.609886    2.463115   -1.867082
H     -3.045291   -1.330867   -1.668423
H     -1.006399    0.567304    1.551120
H      2.357455    1.562690   -2.364657
H      5.743412    1.818683    0.222515
H      2.418477   -0.609759    1.330051
H     -0.974635   -1.682970    2.129947
H     -0.266733   -3.120376    1.306723
H     -0.952259   -2.233605   -0.889129
H     -2.817590   -2.841072    2.009910
H     -0.380988   -0.484080   -2.290695
