47

C     -2.917744    3.793664    0.437346
C     -5.034090   -4.010979    0.717511
C      6.820488    1.707162   -0.380446
C      2.084783    1.397591    0.493493
C      3.379652   -0.567533    0.337230
C      3.217244    2.185029    0.255709
C      4.521878    0.205614    0.098289
C     -1.569207    1.868158   -0.418020
C      0.954183   -0.837459    0.786763
C     -0.141321   -0.013044   -1.307692
C     -0.729452   -2.268660   -0.368903
C     -3.661336    1.400557    0.543121
C     -2.716144    2.340118    0.186025
C     -4.083648   -3.278216   -0.175413
C      2.139272    0.022208    0.539012
C      0.316220   -1.203339   -0.533242
C     -1.368200    0.528586   -0.656991
C      4.434320    1.577527    0.058838
C     -2.131950   -1.812037   -0.537435
C     -2.338447   -0.363682   -0.282833
N     -3.447812    0.091676    0.301328
O     -4.239817   -3.362044   -1.426255
O      5.561674    2.334407   -0.176783
O     -3.045248   -2.515557    0.297684
H     -1.897937    4.238621    0.576921
H     -3.582851    3.994035    1.287314
H     -3.318113    4.226618   -0.499701
H     -5.903707   -3.389017    0.948148
H     -4.452679   -4.219246    1.663059
H     -5.363331   -4.949454    0.239597
H      7.610440    2.475843   -0.409643
H      7.064143    1.048711    0.501756
H      6.762026    1.091413   -1.279033
H      1.117736    1.865986    0.652400
H      3.481181   -1.637774    0.361963
H      3.095286    3.267158    0.234217
H      5.464344   -0.286600   -0.053251
H     -0.787929    2.544354   -0.723820
H      1.319893   -1.750295    1.288680
H      0.235311   -0.318623    1.456268
H     -0.455380   -0.373581   -2.317002
H      0.669546    0.708440   -1.395564
H     -0.562296   -3.142125   -1.033698
H     -0.611671   -2.677645    0.675868
H     -4.586026    1.750546    1.026911
H      1.134477   -1.674795   -1.159063
H     -2.437762   -2.012320   -1.604633
