61

C     -0.075083   -2.434857    2.692109
C      6.861065   -1.466583    0.949488
C     -5.088330    1.541153   -2.776348
C      5.632954   -1.964545    0.642032
C      7.301323   -0.303251    0.358970
C     -3.645949    1.745950   -3.039295
C     -5.438624    0.503954   -1.768498
C     -4.394962   -0.209086    3.074905
C     -3.631166   -1.066287    3.838005
C      4.821641   -1.293984   -0.272563
C      6.482614    0.347153   -0.545039
C     -2.707389    1.596367   -1.914209
C     -4.192575   -0.104506   -1.170819
C     -3.912006    0.342948    1.886316
C     -2.355039   -1.409880    3.450340
C      4.345111    0.558465   -1.843859
C      5.232087   -0.129677   -0.879774
C     -3.386343    1.027923   -0.639513
C     -2.658176    0.008943    1.500307
C      3.454237    1.590306   -1.194233
C     -1.875282   -0.868076    2.279852
C     -2.268948    0.647773    0.246243
C      0.236045    0.670327    0.469824
C      2.554763    1.027153   -0.158781
C      0.326843   -0.689082    0.994342
N      2.754774    2.394627   -2.156198
N     -1.060885    0.892324   -0.118396
N      1.319834    1.104788   -0.321616
N     -0.533057   -1.293728    1.955444
O      3.058594    0.419823    0.981358
O      1.261201   -1.464368    0.580063
H      0.297404   -2.189202    3.709784
H     -0.773373   -3.297756    2.677053
H      0.842310   -2.811936    2.149301
H      7.492751   -2.000766    1.670967
H     -5.564944    2.496822   -2.454110
H     -5.612532    1.266579   -3.726408
H      5.307955   -2.879602    1.118662
H      8.278447    0.040237    0.641315
H     -3.332549    1.061437   -3.860033
H     -3.515414    2.777429   -3.468561
H     -6.018612   -0.352571   -2.208409
H     -6.073890    0.902167   -0.946458
H     -5.412104    0.082085    3.356919
H     -4.008021   -1.485015    4.747460
H      3.864084   -1.763342   -0.459393
H      6.874423    1.262821   -0.985784
H     -1.893939    0.867622   -2.130871
H     -2.207951    2.527048   -1.609493
H     -4.418852   -0.901354   -0.443963
H     -3.668536   -0.626900   -2.019465
H     -4.484352    1.000748    1.284710
H     -1.716050   -2.067924    3.998569
H      4.993579    1.055060   -2.577325
H      3.753923   -0.191722   -2.383125
H     -3.955025    1.927730   -0.324919
H      4.153564    2.297717   -0.654307
H      0.243516    1.370260    1.365996
H      3.484936    2.784731   -2.808591
H      2.047267    1.815107   -2.663225
H      2.602711    0.522084    1.903243
