42

C     -4.194906   -3.281516   -0.715393
C      6.156756   -1.463112    0.248234
C      2.132059    0.508620   -1.589256
C      2.875748    1.170495    0.547630
C     -1.553334    2.451120    0.469404
C      3.217142   -0.368254   -1.698582
C      3.946022    0.307048    0.442294
C     -2.428317    1.764830    1.496784
C     -2.535037   -1.456815   -0.532391
C      0.798051    2.224497   -0.334490
C     -0.778046    0.299359   -0.453725
C     -4.478819   -1.265114    0.765265
C     -3.744691   -1.989745   -0.148329
C      1.936628    1.292728   -0.472785
C     -0.346785    1.513221    0.306109
C     -2.098654   -0.234302   -0.001999
C      4.135238   -0.473900   -0.676710
C     -2.852880    0.467004    0.908635
N     -4.045685   -0.097236    1.262174
O     -4.796645    0.623938    2.183670
O      5.203499   -1.352455   -0.811101
H     -3.709076   -4.151760   -0.225986
H     -5.279674   -3.428907   -0.631718
H     -3.946527   -3.378402   -1.803476
H      6.846294   -0.592781    0.267746
H      6.762600   -2.381858    0.141715
H      5.609103   -1.579875    1.221172
H      1.417358    0.583256   -2.400478
H      2.743643    1.780404    1.442150
H     -2.096051    2.479055   -0.494191
H     -1.202022    3.439125    0.808223
H      3.342948   -0.979732   -2.604133
H      4.669504    0.230288    1.258862
H     -1.809004    1.607443    2.415349
H     -3.291055    2.413255    1.732758
H     -1.924924   -1.986574   -1.244587
H      1.055397    3.102759    0.310512
H      0.552228    2.649176   -1.328862
H     -0.003311   -0.506808   -0.314121
H     -0.815547    0.486174   -1.545204
H     -5.428299   -1.687454    1.064075
H     -0.040927    1.262804    1.347042
