52

C      2.000468    2.557492    0.608347
C      3.312540   -1.883516    3.115320
C      3.194504    1.762305    0.114076
C      2.797627   -0.696001    2.271276
C     -3.658844    2.383560    2.300508
C     -3.548916    1.327702    1.424774
C     -3.909306   -0.403489   -1.017188
C     -3.935603   -1.501724   -1.846857
C     -2.976381    3.536664    2.021274
C      2.809965    0.534854   -0.665432
C      2.537376   -1.242087    0.915748
C      0.881521   -1.466813   -2.035083
C     -0.239899    0.297206   -0.650335
C     -2.109434    2.562501    0.034300
C     -0.967484   -3.054132   -3.155198
C     -2.778125    1.387117    0.277702
C     -0.456493   -2.003649   -2.385296
C      0.800818   -0.845437   -0.638980
C     -2.725205    0.224287   -0.597900
C     -1.540271   -0.302508   -1.051550
C     -2.725646   -2.021600   -2.296454
C     -1.569053   -1.403807   -1.883006
N     -2.228872    3.596692    0.910354
N     -2.317924   -3.031639   -3.077153
N      2.033234   -0.438605   -0.096356
H      1.287596    2.713155   -0.204711
H      2.394831    3.547304    0.976949
H      1.575303    2.028192    1.476146
H      4.367097   -1.744451    3.416006
H      2.686660   -2.037917    4.006765
H      3.278703   -2.833594    2.547123
H      4.001852    1.647951    0.832052
H      3.665148    2.472856   -0.668611
H      3.607179    0.043152    2.322170
H      1.899843   -0.319602    2.794603
H     -4.272783    2.283890    3.182251
H     -4.099501    0.424843    1.670361
H     -4.826486    0.033096   -0.645560
H     -4.855577   -1.973954   -2.161649
H     -3.060878    4.375022    2.717647
H      3.827590    0.116326   -1.010906
H      2.425843    0.944250   -1.646683
H      3.513689   -1.771308    0.625093
H      1.871632   -2.164396    1.097008
H      1.127773   -0.686803   -2.781705
H      1.584762   -2.295359   -1.994010
H     -0.324332    0.708400    0.358852
H      0.104284    1.018927   -1.398786
H     -1.496797    2.665099   -0.850929
H     -0.332706   -3.734152   -3.696559
H      0.311513   -1.635067   -0.005232
H     -2.942838   -3.701235   -3.554571
