61

C     -1.027513   -4.804382    0.030626
C      7.553163    2.272340   -0.151021
C     -4.058923    3.038348    0.831070
C      7.436849    0.921512   -0.387753
C      6.469587    3.037454    0.255808
C     -2.725360    3.023544    1.503364
C     -4.910199    1.832963    1.154924
C     -4.262132   -1.907846   -2.168317
C     -3.832481   -3.206544   -2.315679
C      6.178617    0.360256   -0.199002
C      5.238658    2.454955    0.433956
C     -1.987769    1.715761    1.358340
C     -4.078279    0.567762    1.213033
C     -3.632723   -1.017231   -1.315611
C     -2.739122   -3.614622   -1.582821
C      3.796925    0.465377    0.386455
C      5.098027    1.113142    0.204743
C     -2.826931    0.799213    0.432261
C     -2.549704   -1.460950   -0.603941
C      2.947048    0.450705   -0.839290
C     -2.078387   -2.773413   -0.723726
C     -2.010030   -0.409992    0.251628
C      0.221850   -1.351935    1.016554
C      1.663198   -0.225495   -0.536366
C      0.157042   -2.690757    0.453165
N      2.611986    1.809913   -1.270497
N     -0.876648   -0.488555    0.852478
N      1.447737   -0.677068    0.630281
N     -0.966900   -3.376306   -0.072273
O      0.651534   -0.398249   -1.486132
O      1.246185   -3.370973    0.411173
H     -2.061532   -5.172502    0.290275
H     -0.609381   -5.334932   -0.852899
H     -0.400162   -5.123235    0.887537
H      8.527039    2.750437   -0.288533
H     -4.609727    3.934008    1.233522
H     -4.021628    3.160205   -0.250777
H      8.264825    0.303139   -0.705128
H      6.590047    4.097272    0.434495
H     -2.121758    3.855102    1.049584
H     -2.826433    3.296296    2.587662
H     -5.421879    2.029093    2.120352
H     -5.647358    1.715943    0.360247
H     -5.110435   -1.533959   -2.715336
H     -4.331866   -3.912358   -2.991755
H      6.064222   -0.706557   -0.380646
H      4.408906    3.092623    0.755768
H     -1.015628    1.897349    0.862223
H     -1.837106    1.197043    2.328390
H     -4.631465   -0.345900    1.019929
H     -3.766704    0.477528    2.299401
H     -3.956579   -0.005311   -1.199705
H     -2.344263   -4.632865   -1.651272
H      3.212634    0.952307    1.197865
H      3.925058   -0.597713    0.712451
H     -2.908617    1.466200   -0.442339
H      3.508349   -0.085763   -1.654188
H      0.337754   -1.495911    2.146572
H      1.658234    2.089170   -0.985985
H      2.733212    1.868004   -2.308854
H      0.236935   -1.323641   -1.626289
