49

C      2.793340    1.448232    2.258429
C      3.755348   -0.319947   -2.332638
C      1.651183    1.929063    1.399166
C      3.988652   -0.241300   -0.861380
C     -4.085918   -0.697808    0.972320
C     -3.969553   -2.063455    0.908309
C     -2.747800    2.610942   -0.108930
C     -3.297586    3.814482    0.361341
C      1.682651    1.528032   -0.020736
C      2.736342   -0.654703   -0.083385
C      0.214668   -1.649902   -1.301666
C     -0.823244    0.414277   -0.572604
C     -1.200854   -3.808031   -0.565639
C     -0.879101   -2.478891   -0.717732
C      0.405921   -0.495085   -0.380707
C     -3.097401    0.177940    0.460394
C     -2.000804   -0.398595   -0.105262
C     -2.865958   -2.651442    0.331736
C     -3.315442    1.602884    0.575083
C     -1.914551   -1.791276   -0.157895
N     -2.407275   -3.892542    0.072224
N     -4.169636    3.442636    1.306057
N      1.639733    0.177806   -0.392983
O     -4.182032    2.163056    1.432050
H      2.426456    0.520480    2.786285
H      3.725348    1.253997    1.740338
H      2.963809    2.231742    3.038719
H      2.674013   -0.450401   -2.531159
H      4.364057   -1.139013   -2.814457
H      4.110425    0.604746   -2.867430
H      0.667238    1.706901    1.882931
H      1.730889    3.066563    1.401333
H      4.316385    0.758923   -0.515743
H      4.833594   -0.943148   -0.622188
H     -4.965161   -0.231105    1.430443
H     -4.731526   -2.731032    1.302149
H     -2.033049    2.640576   -0.904024
H     -3.055342    4.818399    0.020846
H      0.920349    2.081343   -0.636052
H      2.659997    1.948169   -0.443240
H      2.540174   -1.705885   -0.470072
H      2.955656   -0.834871    0.983000
H     -0.237965   -1.224639   -2.259495
H      1.077451   -2.226456   -1.595190
H     -0.879864    0.731461   -1.602542
H     -0.753105    1.255770    0.116716
H     -0.584800   -4.631169   -0.901760
H      0.255178   -0.895106    0.669163
H     -2.890891   -4.772618    0.315875
