78

C      6.677089   -0.936551    1.606363
C      6.102564    2.652699   -1.724889
C      5.397557   -1.666091    1.408855
C      5.015173    1.563724   -1.808119
C     -3.933301    3.776728   -2.156443
C     -3.737414    0.693172    4.296904
C     -5.525805   -2.561880   -1.721223
C     -4.654173    3.442837   -1.030846
C     -2.872857    2.991016   -2.556383
C     -3.375296    1.769154    3.520968
C     -3.844634   -0.543307    3.708949
C     -4.278853   -2.298597   -2.240609
C     -5.880644   -1.877679   -0.579596
C     -4.312775    2.321070   -0.303831
C     -2.541905    1.852997   -1.802431
C     -3.114001    1.667805    2.177194
C     -3.581347   -0.646087    2.355002
C     -3.413176   -1.413014   -1.680122
C     -5.033066   -0.965397    0.028110
C     -0.344270   -3.631349   -0.252393
C     -1.232256   -2.602807    0.011703
C      4.221865   -0.872893    0.928061
C      5.131849    0.814910   -0.471173
C      2.038738    0.515686   -0.334113
C      2.610655   -1.628419   -1.516367
C     -0.364816    0.950777    0.058594
C      0.649473    0.335653   -0.899334
C     -3.255012    1.514036   -0.677446
C     -3.218358    0.420089    1.561122
C     -3.799791   -0.735268   -0.522375
C      3.065254   -0.282414   -1.108767
C      1.283094   -2.043191   -1.007158
C      0.910355   -3.367522   -0.759370
C     -0.858895   -1.275481   -0.237852
C      0.377105   -1.104996   -0.730649
C     -2.895903    0.270165    0.103382
Br     2.156968   -4.744588   -1.135294
N      4.258781   -0.259304   -0.315361
N     -1.501493    0.000457   -0.044234
H      7.424385   -1.040725    0.799901
H      7.244494   -1.343558    2.516933
H      6.463335    0.106640    1.914231
H      6.016884    3.335357   -2.585897
H      5.898457    3.164338   -0.753890
H      7.080603    2.158544   -1.623752
H      5.609318   -2.516092    0.684289
H      5.169012   -2.164521    2.402240
H      4.041376    2.114886   -1.835355
H      5.198875    0.942637   -2.675435
H     -4.232361    4.662713   -2.696736
H     -3.944958    0.768731    5.359168
H     -6.229898   -3.257769   -2.144670
H     -5.475949    4.077291   -0.746515
H     -2.329094    3.271964   -3.434271
H     -3.308254    2.728749    4.056621
H     -4.132458   -1.430058    4.298039
H     -4.002206   -2.839457   -3.140672
H     -6.859685   -2.064958   -0.145907
H     -4.874723    2.040892    0.565837
H     -1.714669    1.259120   -2.181101
H     -2.827706    2.536097    1.627970
H     -3.657060   -1.652806    1.901347
H     -2.464623   -1.210574   -2.101162
H     -5.407033   -0.467728    0.891960
H     -0.668655   -4.634919   -0.048335
H     -2.193268   -2.797797    0.415014
H      3.256090   -1.435910    1.136093
H      4.121719   -0.028047    1.697469
H      6.206571    0.545717   -0.339952
H      4.913450    1.590068    0.304591
H      2.312459    1.578430   -0.277691
H      1.998828    0.079779    0.696191
H      2.491747   -1.642253   -2.643142
H      3.350129   -2.438692   -1.338152
H      0.019842    0.939411    1.102753
H     -0.658497    1.940943   -0.226062
H      0.552363    0.685851   -1.918667
H      3.284683    0.341567   -2.029285
