52

C      3.500430    3.240097    2.221388
C     -2.582647   -0.132463   -3.195155
C     -3.849564   -0.385404   -2.441027
C     -4.012771    0.516522    2.157095
C     -2.554484    0.633310    2.685791
C      4.234011    0.898244    0.543722
C      4.608124   -0.166924   -0.243708
C      0.226724   -1.142343   -1.218785
C      0.471810    0.392341    0.772454
C      2.312092   -2.376113   -2.034537
C     -2.087488    0.631124   -0.788323
C     -2.503470   -1.162851    0.846206
C      2.541776    2.231526    1.739199
C     -2.940827    0.657219   -1.962289
C     -3.087772   -0.614709    2.086916
C      1.517359   -1.883685   -0.865157
C     -0.316132   -0.687368    0.124226
C      2.897923    1.092209    0.900619
C      1.899152    0.210582    0.470038
C      3.648450   -1.049727   -0.681455
C      2.375557   -0.809329   -0.301048
N      3.703267   -2.200166   -1.532830
N     -1.725788   -0.403543   -0.006054
O      1.338575    2.392480    2.092029
H      3.459165    4.165043    1.575778
H      4.537261    2.920090    2.285824
H      3.181790    3.554970    3.247585
H     -2.667708    0.417492   -4.188889
H     -1.775074   -0.845242   -3.228441
H     -4.018087   -1.364994   -1.948960
H     -4.763612   -0.076730   -2.988002
H     -4.776265    0.528686    2.960903
H     -4.272954    1.186984    1.332940
H     -1.898635    1.337380    2.168550
H     -2.451322    0.690842    3.800232
H      4.993854    1.574248    0.871375
H      5.651906   -0.352967   -0.548503
H      0.468845   -0.315624   -1.879239
H     -0.445160   -1.918083   -1.657171
H      0.274288    0.347329    1.865885
H      0.221652    1.414549    0.346038
H      2.193517   -3.450600   -2.216582
H      2.136015   -1.749055   -2.903569
H     -1.099416    1.081041   -1.179496
H     -2.405411    1.509753   -0.122189
H     -3.276147   -1.761089    0.266069
H     -1.839779   -2.028055    1.196958
H     -3.311574    1.716430   -2.202500
H     -3.311782   -1.422929    2.857628
H      1.348057   -2.655779   -0.087621
H     -0.239763   -1.581885    0.790299
H      4.472031   -2.802833   -1.784214
