51

C     -2.876889   -3.496904    0.322305
C     -3.008658    2.199500    1.350066
C     -2.500943   -2.265827   -0.516043
C     -3.712595    1.249376    0.384901
C      3.968035    0.692212    0.783088
C      4.138044    1.623561   -0.221540
C     -2.071506   -1.222287    0.497824
C     -2.739619    0.736687   -0.641015
C     -0.200810    1.182948   -1.623565
C      0.619467   -0.708668   -0.122378
C      1.617452    2.462982   -2.795215
C      2.018037   -2.151812    2.162868
C      3.351433   -1.931062    3.851526
C      1.152985    1.147568   -2.228965
C     -0.499878   -0.086397   -0.909242
C      2.820990   -0.133290    0.838708
C      1.891102    0.028155   -0.134374
C      3.194895    1.772402   -1.197278
C      2.798252   -1.056695    1.959979
C      2.098783    0.955631   -1.109212
N      2.375172   -2.692193    3.356924
N      3.001060    2.581993   -2.346581
N     -1.667042    0.016668   -0.053698
O      3.604591   -0.963758    3.028506
H     -3.689866   -3.221238    0.989607
H     -1.958831   -3.669891    0.958927
H     -3.023073   -4.383803   -0.293301
H     -2.947761    3.197831    0.865318
H     -3.617503    2.265066    2.253640
H     -1.982006    1.813110    1.498236
H     -3.350806   -1.945890   -1.131424
H     -1.650431   -2.620055   -1.148606
H     -4.515544    1.882205   -0.099127
H     -4.253010    0.496539    0.955809
H      4.749241    0.624391    1.523073
H      5.012528    2.264241   -0.272227
H     -2.999802   -1.034711    1.118405
H     -1.371083   -1.710641    1.184555
H     -3.339178    0.107127   -1.352554
H     -2.414653    1.623797   -1.230764
H     -0.271418    2.056157   -0.955653
H     -0.923697    1.272261   -2.488598
H      0.820753   -1.738253   -0.451754
H      0.304861   -0.758305    0.963415
H      0.991334    3.317197   -2.548904
H      1.707487    2.316903   -3.912043
H      1.253997   -2.610964    1.553123
H      3.848758   -2.117297    4.813838
H      1.275790    0.313208   -2.962737
H     -0.786455   -0.838187   -1.697826
H      3.758011    3.158414   -2.770019
