80

C      6.226863    1.049329   -2.946763
C      5.880766   -2.788504    2.332305
C      5.798981   -0.169779   -2.150207
C      4.749109   -2.466473    1.348823
C     -4.782076    3.103589   -2.821665
C     -4.469798    0.268390    3.757806
C     -4.446784   -3.539353   -1.985976
C     -3.521602    3.297174   -2.267991
C     -5.478506    1.948789   -2.537259
C     -5.208634    0.845520    2.736826
C     -3.280511   -0.329256    3.399050
C     -3.943087   -2.526177   -2.783017
C     -4.511531   -3.365390   -0.627102
C     -2.969179    2.336987   -1.436997
C     -4.910927    1.017464   -1.713944
C     -4.800384    0.837464    1.425468
C     -2.807180   -0.377207    2.108696
C     -3.504673   -1.341102   -2.224467
C     -4.064377   -2.161641   -0.075236
C     -0.027319    2.455504    2.398999
C     -1.056592    1.964252    1.613898
C      4.658407    0.216337   -1.236929
C      5.156839   -1.287995    0.515519
C      1.874321   -0.484492   -1.000337
C      2.842641    0.400245    1.166842
C     -0.644605   -0.153825   -1.285461
C      2.336642    2.476082    3.103681
C      1.267809    1.948690    2.285011
C      0.496093   -0.607547   -0.393329
C     -3.669059    1.195715   -1.161496
C     -3.603295    0.225959    1.125902
C     -3.564722   -1.150492   -0.838334
C      2.895386   -0.666658    0.124926
C      1.464048    0.946608    1.364608
C     -0.835995    0.952822    0.689909
C      0.440260    0.486789    0.615637
C     -3.072069    0.148016   -0.247608
N      4.182883   -0.884219   -0.455129
N     -1.646724    0.273926   -0.299578
O      3.519121    2.096567    3.041738
H      7.243158    0.794943   -3.359915
H      5.562829    1.234229   -3.819276
H      6.316549    1.964164   -2.337393
H      5.534136   -2.780590    3.385995
H      6.341065   -3.769553    2.133187
H      6.684108   -2.027006    2.231689
H      6.684887   -0.562238   -1.640506
H      5.433485   -0.929671   -2.883082
H      3.878541   -2.246397    1.986720
H      4.613253   -3.387756    0.743910
H     -5.165948    3.880892   -3.460770
H     -4.827284    0.293157    4.796118
H     -4.781630   -4.453055   -2.449424
H     -2.944987    4.193511   -2.470754
H     -6.468299    1.828617   -2.989041
H     -6.146070    1.319224    3.000438
H     -2.663992   -0.798714    4.179666
H     -3.896635   -2.673283   -3.838469
H     -4.909883   -4.173260   -0.029509
H     -1.966453    2.530199   -1.025931
H     -5.482368    0.099610   -1.494237
H     -5.405553    1.302896    0.633822
H     -1.865190   -0.869604    1.882247
H     -3.116655   -0.524143   -2.828359
H     -4.137206   -2.066299    0.989396
H     -0.201553    3.236357    3.112566
H     -2.060346    2.353722    1.689816
H      3.861890    0.616237   -1.920897
H      4.988980    1.080679   -0.609132
H      6.105756   -1.542930   -0.020269
H      5.431812   -0.451238    1.212249
H      1.921188    0.542396   -1.426202
H      2.024093   -1.290086   -1.715672
H      3.460673    1.278281    0.879117
H      3.203974    0.000440    2.124758
H     -0.986942   -0.929751   -1.959332
H     -0.273039    0.701964   -1.875358
H      2.143704    3.268836    3.847408
H      0.314990   -1.593850    0.058589
H      2.580417   -1.643041    0.599017
