50

C     -3.939815    3.002488   -0.660842
C     -2.560219   -2.336556    1.801382
C      3.745846    0.068938    3.690244
C     -3.134168    1.747117   -0.908668
C     -3.374754   -1.854901    0.586399
C      4.235304   -0.135155    0.752732
C      4.475013   -0.282348   -0.620329
C     -2.579632    1.185473    0.383093
C     -2.480005   -1.123559   -0.349393
C     -0.095441   -0.550231   -1.533374
C      0.467952    0.345345    0.783041
C      1.883056   -0.749534   -3.133609
C      2.699630    0.262147    2.641696
C      1.183014    0.059565   -2.089155
C     -0.519752    0.279950   -0.319676
C      2.951957    0.081819    1.212345
C      1.866020    0.158399    0.322751
C      3.430677   -0.211882   -1.521198
C      2.196999    0.005244   -0.986003
N      3.290247   -0.354803   -2.949773
N     -1.826831    0.025773    0.103800
O      1.558838    0.601342    3.100005
H     -3.274306    3.857906   -0.897363
H     -4.753152    3.033603   -1.432605
H     -4.334632    3.054689    0.376408
H     -3.125283   -3.155184    2.290554
H     -2.329800   -1.524264    2.478255
H     -1.644783   -2.799522    1.343315
H      3.587252    0.761428    4.556256
H      4.723427    0.315330    3.273007
H      3.758218   -0.998135    4.026994
H     -3.879534    1.001518   -1.319249
H     -2.374362    1.949632   -1.664193
H     -3.705441   -2.784706    0.079598
H     -4.278412   -1.321046    0.891340
H      5.079297   -0.199395    1.440090
H      5.474580   -0.453980   -0.997955
H     -3.422959    1.057009    1.067902
H     -1.906241    1.950406    0.817865
H     -3.106523   -0.846765   -1.250346
H     -1.748792   -1.841730   -0.744077
H      0.088295   -1.599916   -1.304500
H     -0.882548   -0.457602   -2.287902
H      0.282320   -0.454583    1.532368
H      0.427886    1.358340    1.237750
H      1.547668   -0.538460   -4.162384
H      1.787241   -1.838197   -2.885860
H      1.065449    1.112973   -2.383672
H     -0.546475    1.344293   -0.756623
H      4.017673   -0.208272   -3.630442
