33

C     -2.501846   -1.386650   -0.751061
C     -2.985229    1.512169   -0.972680
C      5.308027   -1.177962    0.168883
C     -3.583464   -0.667137   -0.021550
C      3.601573    0.424840   -0.562105
C      3.023502   -1.192496    1.117916
C      2.317051    0.920920   -0.478442
C      1.740571   -0.681629    1.187743
C     -2.263158    0.911233    1.395230
C     -3.236854    0.779283    0.294441
C      3.943299   -0.630780    0.239813
C      1.378127    0.391904    0.378330
C      0.035796    0.961689    0.419937
O     -0.209703    1.927080   -0.341054
O     -0.963738    0.521826    1.222162
H     -2.316377   -1.044523   -1.775145
H     -2.828914   -2.466533   -0.807659
H     -1.536070   -1.397127   -0.180188
H     -2.319300    0.991888   -1.697624
H     -4.000825    1.533919   -1.506629
H     -2.763731    2.583638   -0.843119
H      5.576464   -1.395778   -0.889984
H      5.390507   -2.084984    0.787413
H      6.044856   -0.438175    0.560186
H     -4.484316   -0.657941   -0.651378
H     -3.751556   -1.171489    0.941733
H      4.303200    0.857719   -1.235837
H      3.279803   -2.024899    1.755643
H      2.040278    1.768021   -1.120945
H      1.023032   -1.108822    1.862932
H     -2.366261    1.962707    1.801018
H     -2.673495    0.283214    2.253763
H     -4.221251    1.194872    0.693323
