36

C     -0.305168    1.102217   -1.457914
C     -2.819369   -2.117690   -0.159795
C      1.347518   -1.741840   -0.744746
C      3.236541    1.489452    1.235154
C      1.869862    1.575864    0.945613
C     -0.122338   -1.581381   -1.015973
C     -2.396239    1.623894    0.372719
C     -0.954624    1.625792    0.822299
C      3.297291   -0.650000    0.241013
C      1.931595   -0.566863   -0.049836
C      3.949128    0.375747    0.882216
C      1.234908    0.550889    0.308843
C     -0.743896   -0.780350    0.125524
C     -2.972336    0.258370    0.438561
C     -0.199592    0.624631   -0.002919
Cl     5.675467    0.297539    1.262551
N     -2.163517   -0.859334    0.139601
O     -4.167655    0.131548    0.759343
H     -1.254053    0.788466   -1.913764
H     -0.314602    2.228363   -1.432159
H      0.594226    0.825374   -2.019646
H     -3.768631   -2.228512    0.435632
H     -2.196724   -2.993138    0.144734
H     -3.035535   -2.209239   -1.252352
H      1.485648   -2.645581   -0.082804
H      1.924242   -1.986648   -1.678373
H      3.722230    2.293154    1.731514
H      1.336603    2.454698    1.231377
H     -0.644198   -2.549652   -1.102854
H     -0.290825   -1.011714   -1.964320
H     -2.959541    2.297057    1.034822
H     -2.443719    1.965619   -0.675349
H     -0.816293    1.539755    1.896276
H     -0.557396    2.638776    0.515852
H      3.868281   -1.535289   -0.038441
H     -0.347290   -1.229972    1.067601
