51

C     -3.210887   -2.446948    1.539271
C     -3.651117    3.534780    0.423089
C     -3.041348   -1.470449    0.395135
C     -2.663436    2.427399    0.716188
C      4.133016   -0.869647    0.113387
C      4.185528   -1.587971   -1.087594
C      3.748259    1.366548    3.679425
C     -1.917092   -0.526285    0.756288
C     -2.551761    1.469202   -0.473952
C      2.456903    1.828510    3.456823
C     -0.344030   -0.882555   -1.778064
C      0.725322    0.603910   -0.042578
C      1.275843   -2.163516   -3.253673
C      0.925364   -0.892936   -2.566023
C     -0.431189    0.372552   -0.942720
C      3.014585   -0.134736    0.486321
C      1.951954   -0.139498   -0.378873
C      3.105875   -1.577251   -1.937736
C      2.018068   -0.838840   -1.538390
C      2.985681    0.601914    1.742653
N      4.035670    0.616153    2.602505
N      2.754499   -2.162434   -3.178119
N     -1.633620    0.446402   -0.210183
O      2.075246    1.331416    2.288081
H     -2.483228   -2.241421    2.368930
H     -3.045320   -3.514148    1.203491
H     -4.254130   -2.399343    1.929106
H     -4.694199    3.288077    0.638527
H     -3.337047    4.476147    0.935446
H     -3.576211    3.736945   -0.682981
H     -2.796647   -2.068690   -0.507719
H     -3.980182   -0.881633    0.291499
H     -1.664079    2.843538    0.963865
H     -3.020811    1.900520    1.635086
H      4.980759   -0.877436    0.779552
H      5.047715   -2.158831   -1.385395
H      4.400154    1.564131    4.545895
H     -1.069423   -1.141357    1.091259
H     -2.279267   -0.001387    1.690546
H     -2.265147    2.110054   -1.333797
H     -3.593943    1.136773   -0.670773
H      1.925785    2.461834    4.137037
H     -1.221789   -0.858290   -2.473990
H     -0.387986   -1.804397   -1.176616
H      0.455733    0.271463    1.007754
H      0.972786    1.675003    0.041006
H      1.018564   -2.089905   -4.319862
H      0.879199   -3.050119   -2.753636
H      1.066065    0.009504   -3.192769
H     -0.451847    1.221568   -1.693797
H      3.427160   -2.514322   -3.878926
