46

C      5.213809    1.279034    0.755645
C     -5.189879    1.472995    1.123122
C     -6.137880   -0.629324    0.160046
C      6.329019    0.741222   -0.103425
C      5.925077   -0.486572   -0.808319
C     -2.705467   -0.040432    1.726578
C     -1.880383    0.215414    0.482546
C     -4.020433   -0.708177    1.391839
C     -1.564644   -1.082342   -0.250547
C      4.828428   -0.438439   -1.788618
C      1.387049   -0.154404   -0.082501
C     -4.870024    0.129790    0.472207
C     -0.748703   -0.709768   -1.469438
C      0.500532   -0.044322   -1.269591
C      3.513791    0.018935   -1.350002
O      3.078547    1.132303   -1.787636
O      2.655523   -0.640881   -0.479492
O      0.355306   -1.433262   -1.844605
H      5.653595    1.767114    1.671296
H      4.570636    1.993163    0.249984
H      4.605368    0.406659    1.120135
H     -4.262986    2.063883    1.160035
H     -5.583672    1.314014    2.166109
H     -5.932115    1.969426    0.459074
H     -7.008119   -0.144768    0.671992
H     -6.111285   -1.680172    0.495311
H     -6.328574   -0.646157   -0.949998
H      7.179642    0.512701    0.612410
H      6.764526    1.528704   -0.759014
H      5.753534   -1.346856   -0.095293
H      6.838617   -0.849794   -1.386721
H     -2.899636    0.944970    2.193980
H     -2.159412   -0.725011    2.383874
H     -2.364517    0.908747   -0.202297
H     -0.894827    0.611927    0.807345
H     -4.556700   -0.830168    2.375930
H     -3.862226   -1.699975    0.964486
H     -1.020447   -1.788320    0.421309
H     -2.505192   -1.580488   -0.596480
H      5.106464    0.151712   -2.705863
H      4.748474   -1.497781   -2.213935
H      1.510903    0.832101    0.418491
H      0.976529   -0.866144    0.669864
H     -4.312829    0.372448   -0.457746
H     -1.405974   -0.359900   -2.301241
H      0.830556    0.679168   -2.050848
