45

C     -2.344592   -1.710693   -2.450237
C      5.453965   -0.389697    0.623944
C      4.056788    1.299600   -0.320809
C      3.699884   -1.023593   -0.863367
C      2.575048    1.366837   -0.301794
C      2.612909   -1.114411    0.185652
C     -0.519297   -0.199638   -1.731636
C     -1.051329    0.627397    2.357589
C     -3.963701    0.065194   -0.445862
C     -1.988671   -0.268586   -2.083391
C     -0.476706    0.091909   -0.288421
C     -2.083696    0.449194    1.468192
C     -4.385727    0.328897    0.856178
C      0.267453    0.533604    1.902955
C     -1.776677    0.183026    0.153127
C      0.573531    0.267361    0.587504
C     -3.426962    0.523634    1.826883
C     -5.790438    0.396302    1.179678
F      1.267252    0.710643    2.786448
N      4.618198    0.000265   -0.474402
N      1.918078    0.178394    0.156929
N     -2.671664   -0.010228   -0.809773
O     -3.727381    0.764728    3.017905
O     -6.636341    0.217490    0.288756
O     -6.190188    0.656753    2.465661
H     -3.358116   -1.964934   -2.066944
H     -2.353100   -1.825945   -3.539732
H     -1.611610   -2.384117   -1.943980
H      5.810746   -1.422421    0.478663
H      6.359041    0.253767    0.662747
H      4.926298   -0.278365    1.579589
H      4.461646    1.761932    0.613305
H      4.416745    1.976669   -1.147029
H      3.224712   -0.741209   -1.820274
H      4.251373   -1.973571   -0.941635
H      2.123071    1.641864   -1.289105
H      2.255210    2.203031    0.386655
H      3.063437   -1.307554    1.171738
H      1.905973   -1.927158   -0.033018
H     -0.079765    0.613590   -2.345152
H     -0.033972   -1.166702   -1.971417
H     -1.265783    0.838442    3.400549
H     -4.728487   -0.086832   -1.203810
H     -2.284386    0.436707   -2.865196
H     -7.092769    0.312785    2.786340
