76

C     -2.504843   -2.335213   -4.330411
C     -3.672262   -4.145142   -3.229598
C      0.570463    7.142189   -0.890173
C      8.152119    0.050824   -2.224099
C      6.567151   -3.975890    1.208191
C     -5.905323   -0.019233    4.774725
C     -4.675133    0.485607    5.135429
C     -6.150099   -0.514557    3.495004
C     -3.653836    0.493807    4.177770
C     -1.295457    2.795750    0.258850
C      0.852129    3.329429    1.054012
C     -5.314443   -0.977855    1.275620
C      4.171572   -0.028948   -0.728813
C     -1.373647    4.045587   -0.371374
C      0.798926    4.572544    0.439302
C     -4.299224   -0.965340    0.338888
C      5.474814    0.005244   -1.224126
C     -2.652923   -2.432582   -1.933751
C     -2.703091   -0.948997   -1.675447
C      4.679132   -1.985838    0.477124
C     -5.118492   -0.499410    2.548834
C     -0.187481    2.433675    0.970856
C      3.762780   -1.023535    0.125016
C     -0.310225    4.929495   -0.271112
C     -3.909363    0.001916    2.918992
C     -3.066917   -0.464534    0.685145
C      6.374666   -0.966170   -0.859562
C      5.980738   -1.967841   -0.006023
C      0.193628   -0.036156    0.718317
C     -0.095178    1.136500    1.620828
C     -2.863847    0.024103    1.983254
C     -0.761090   -0.209832   -0.365923
C      2.427015   -1.067309    0.639451
N     -3.243298   -2.789173   -3.202914
N     -2.148849   -0.532721   -0.427501
O     -0.262568   -0.040044   -1.502602
O      1.990183   -1.949712    1.421701
O     -0.411797    6.148365   -0.898258
O      7.681014   -0.935951   -1.353076
O      6.915035   -2.933453    0.342040
O      1.520164   -0.085703    0.273496
S     -1.425523    0.710399    2.730685
H     -2.473232   -3.091613   -5.117573
H     -1.468987   -2.023171   -4.094919
H     -3.062533   -1.457057   -4.766920
H     -3.845502   -4.535384   -4.242137
H     -4.673403   -4.180063   -2.706207
H     -3.002534   -4.787979   -2.621443
H      1.307482    6.963240   -1.696039
H      0.060651    8.123765   -1.077560
H      1.014174    7.202335    0.116094
H      8.514066    0.946720   -1.648690
H      9.076693   -0.323214   -2.749940
H      7.436932    0.352514   -3.004621
H      6.205596   -3.600497    2.198680
H      7.408958   -4.645617    1.407400
H      5.726635   -4.554822    0.778752
H     -6.743728   -0.057611    5.464198
H     -4.554098    0.851703    6.138749
H     -7.108298   -0.913654    3.196234
H     -2.687153    0.888180    4.453523
H     -2.173433    2.187286    0.122903
H      1.752353    3.105241    1.599615
H     -6.277454   -1.374119    0.989715
H      3.521590    0.770312   -1.061401
H     -2.247295    4.340054   -0.936799
H      1.617778    5.278492    0.504739
H     -4.459843   -1.333855   -0.634295
H      5.787124    0.783420   -1.889409
H     -3.017951   -3.076386   -1.125915
H     -1.569255   -2.773862   -2.043383
H     -1.917516   -0.575198   -2.441573
H     -3.568768   -0.413839   -2.058978
H      4.393100   -2.775921    1.141479
H      0.075150   -0.939029    1.394960
H      0.846077    1.165336    2.291992
