32

C     -2.256399    0.231416   -1.423904
C      3.725320    1.732033   -0.947401
C      2.364506    1.810665   -0.947889
C      5.761543   -0.892027    0.260822
C      4.472959   -1.308057    0.496656
C     -0.466180   -0.285598    0.139770
C     -2.725896   -1.071649    0.665545
C     -1.943817    0.044797    0.021115
C      4.353073    0.619143   -0.428506
C      1.632767    0.768443   -0.425683
N     -4.924580    0.620603    1.398241
N      5.668779    0.333320   -0.326954
N      2.286236   -0.289073    0.065831
N      3.617934   -0.380110    0.073095
O     -4.953200   -0.865914   -0.825929
O     -5.122470   -1.971978    1.315311
O      0.258805    0.784875   -0.395861
S     -4.460506   -0.831729    0.594293
H     -3.208907    0.747953   -1.562474
H     -2.203051   -0.743977   -1.960365
H     -1.453829    0.897343   -1.851141
H      4.318244    2.534640   -1.350358
H      1.802099    2.658771   -1.341009
H      6.699896   -1.358297    0.459672
H      4.205190   -2.240452    0.953206
H     -0.253449   -1.245936   -0.388649
H     -0.259913   -0.417207    1.237446
H     -2.415677   -1.159547    1.723501
H     -2.472992   -2.034933    0.171925
H     -2.132878    0.995447    0.559885
H     -4.127436    1.275188    1.527347
H     -5.786171    1.041845    1.035758
