28

C     -1.376296   -2.479237    0.862720
C     -2.378004   -0.618943   -0.392245
C      0.046623    2.826156    0.029703
C      1.251559   -1.097357   -0.140671
C     -1.255564   -1.603020   -0.370355
C     -1.728434    0.683805   -0.253435
C      0.505897    1.520652   -0.022412
C      2.187796   -0.120909   -0.001698
C     -1.314953    3.034788   -0.062634
C     -2.204925    1.993790   -0.202360
C     -0.385428    0.498582   -0.160963
C      1.853752    1.205872    0.061663
C      3.616079   -0.467955    0.086462
Cl    -1.904056    4.693722    0.003159
Cl    -3.925888    2.276502   -0.317804
N     -0.064008   -0.800895   -0.223457
O      2.697960    2.132348    0.190085
O      4.503937    0.412189    0.215174
O      4.016101   -1.786211    0.028800
H     -1.888526   -3.404153    0.554476
H     -0.337386   -2.760841    1.145003
H     -1.869944   -1.953150    1.698973
H     -3.134783   -0.817286    0.399179
H     -2.878774   -0.681102   -1.394737
H      0.757880    3.623404    0.139033
H      1.512615   -2.143055   -0.190780
H     -1.245483   -2.206919   -1.298581
H      4.942255   -1.960777   -0.391505
