32

C      1.809428    0.530820   -2.777222
C     -3.202510   -1.397405   -0.060142
C     -1.940003   -1.306508   -0.573453
C     -4.753691    0.947484    2.083760
C     -3.518797    1.506311    1.871136
C      1.002031    0.911485   -0.533859
C      2.764280   -0.754352   -0.895034
C      2.277468    0.594057   -1.304499
C     -3.630448   -0.366955    0.767572
C     -1.156058   -0.212510   -0.253068
N      2.206941   -0.434465    1.952433
N     -4.821731   -0.203361    1.405534
N     -1.613045    0.759962    0.552031
N     -2.834512    0.675853    1.051016
O      3.868531   -2.198663    1.033079
O      4.501588    0.158855    0.876489
O      0.105617   -0.156893   -0.787735
S      3.335172   -0.812080    0.749523
H      1.147020    1.402056   -2.963270
H      2.720493    0.584811   -3.406324
H      1.256611   -0.415486   -2.951524
H     -3.853575   -2.245903   -0.289215
H     -1.571204   -2.077637   -1.214762
H     -5.536284    1.348852    2.683900
H     -3.106751    2.425104    2.251299
H      0.555377    1.873659   -0.943983
H      1.193988    1.066941    0.527753
H      3.561681   -1.077362   -1.625505
H      1.968875   -1.542876   -1.021224
H      3.027844    1.378518   -1.233558
H      1.711143   -1.227534    2.370261
H      2.524521    0.265221    2.658590
