34

C     -1.963393   -1.132342    1.454154
C     -0.486734   -1.884741   -0.475803
C      3.251580   -0.967074    0.591433
C      1.897040   -1.133118    0.411658
C      3.895614    0.196378    0.238412
C     -0.980182    0.292225   -1.464417
C     -2.289532    0.945028   -1.283165
C      1.755249    1.024985   -0.489121
C     -1.721543    1.253403    1.012910
C     -0.965448   -0.063520    1.029396
C      1.110274   -0.120517   -0.142974
C      3.127415    1.209239   -0.312588
C     -0.350886   -0.358362   -0.311497
N     -2.785627    1.065395    0.052517
O      3.765113    2.373550   -0.667499
H     -1.493064   -1.837823    2.190866
H     -2.799168   -0.658203    2.038567
H     -2.437558   -1.642704    0.612182
H     -1.398915   -2.056119   -1.090394
H      0.371849   -2.249718   -1.075083
H     -0.539115   -2.399456    0.485252
H      3.828637   -1.794598    1.029300
H      1.460962   -2.090534    0.726518
H      4.961554    0.306258    0.391174
H     -1.111958   -0.466282   -2.299335
H     -0.280424    1.030689   -1.952697
H     -3.113006    0.432644   -1.872665
H     -2.295022    1.992864   -1.709608
H      1.225474    1.839383   -0.912464
H     -1.056779    2.052578    0.690377
H     -2.157658    1.425787    2.003655
H     -0.217729    0.008708    1.847981
H     -3.420285    0.289235    0.325737
H      3.213267    3.116765   -1.072781
