40

C     -2.914599   -0.035678    0.586390
C      2.867343   -0.855727    0.114334
C      1.645719   -1.504205    0.090856
C     -0.876279    1.128959   -0.077975
C     -1.721686   -0.095354   -0.339200
C      0.498501    0.606756   -0.013585
C      2.895309    0.518022    0.073707
C      0.464115   -0.778331    0.027159
C      1.720430    1.239431    0.010379
F      4.070644    1.226247    0.093716
F      1.776794    2.594615   -0.028697
N     -0.885391   -1.210360   -0.007417
C     -3.122222    0.299637    0.148259
C     -0.871893   -0.052621    1.182433
C     -1.028328    0.073845   -1.179233
C      0.481457   -0.231710    1.068934
C      0.323429   -0.103519   -1.326520
C     -1.651973    0.103714    0.055404
C      1.076623   -0.257064   -0.180014
O      3.516698    1.043885   -0.175702
O      3.208602   -1.221913   -1.483623
O      3.308176   -1.248098    0.961752
S      2.809254   -0.490467   -0.232189
H     -3.474693   -0.986354    0.635961
H     -2.514385    0.264554    1.588396
H     -3.600573    0.788014    0.246092
H      3.796740   -1.399664    0.163656
H      1.638223   -2.587196    0.123386
H     -0.970153    1.856403   -0.911111
H     -1.152292    1.608347    0.869350
H     -2.049174   -0.180040   -1.387705
H     -1.214593   -2.198438    0.182325
H     -3.488180    1.027318   -0.614233
H     -3.689967   -0.643826    0.069479
H     -3.360010    0.728243    1.142849
H     -1.367559   -0.028942    2.164678
H     -1.644236    0.197447   -2.073097
H      1.085332   -0.353653    1.962133
H      0.827663   -0.129991   -2.272571
H      3.587134    1.287717    0.781262
