46

C     -2.440763   -1.673572   -1.328794
C     -2.729127   -0.904416    0.893719
C     -2.677178   -2.968848   -0.904568
C     -2.968830   -2.200892    1.336050
C      3.484403    1.253435    1.320689
C      4.699207    0.643869    1.577228
C     -3.392958    1.665521   -0.601738
C     -2.971729    3.098625   -0.823437
C      2.645799   -0.750416    0.422744
C     -0.643883    2.566899   -1.131493
C      0.156883    0.444467   -0.118919
C      5.492899   -2.911167    1.150640
C     -2.464634   -0.628801   -0.432673
C     -1.011860    1.382694   -0.261149
C     -2.944049   -3.244965    0.435183
C      2.451939    0.575741    0.747152
C     -2.212291    0.729451   -0.903115
C      4.873041   -0.692642    1.242527
C      3.842395   -1.395574    0.662143
F     -3.177569   -4.498734    0.872846
N     -1.806215    3.195960   -1.677664
O      1.212130    1.175254    0.478608
O      5.929597   -1.581688    1.358947
O      4.270553   -2.695123    0.430087
Cl     0.684871    0.000000    0.000000
H     -2.239383   -1.539328   -2.393570
H     -2.764889   -0.138438    1.656105
H     -2.668162   -3.821267   -1.575329
H     -3.177673   -2.438427    2.368884
H      3.360154    2.282656    1.581905
H      5.518580    1.179628    2.031772
H     -4.264200    1.392138   -1.227170
H     -3.584057    1.560271    0.487142
H     -3.808561    3.598405   -1.361857
H     -2.833811    3.661629    0.117517
H      1.849887   -1.322093   -0.034031
H     -0.064285    2.142568   -2.001736
H      0.030399    3.274552   -0.596322
H     -0.119587   -0.360434    0.560385
H      0.531525    0.097810   -1.103208
H      5.281071   -3.410432    2.115717
H      6.213713   -3.487129    0.526949
H     -1.259024    1.785598    0.741283
H     -2.022572    0.732202   -1.995880
H     -1.596887    4.225014   -1.764994
H     -0.684871    0.000000    0.000000
