61

C      1.519803    0.179875   -3.110364
C     -5.099045    2.241273   -2.419478
C     -5.942225    1.039140   -0.642628
C      7.662454    1.683690   -0.270885
C     -3.437350   -2.899807    0.138563
C      0.648694   -4.291374    2.148684
C     -2.552359   -3.847163    0.555642
C     -0.554452   -4.542905    1.537145
C     -3.126701   -1.562596    0.289002
C      1.008872   -2.988897    2.328925
C      3.783496    1.881693    1.335334
C      3.233238   -0.189669    0.256163
C      5.055226    1.805803    0.799792
C      4.507888   -0.258337   -0.275592
C     -3.543984    1.254808   -0.907500
C     -3.200816    0.891340    0.512838
C      1.243186    0.958116   -1.893377
C     -1.335967   -3.464281    1.135593
C      2.883390    0.887125    1.061398
C      5.440114    0.745786   -0.007879
C     -1.930216   -1.194971    0.854553
C      0.245701   -1.881674    1.936293
C     -0.984325   -2.143277    1.306271
C      0.576900    1.161962    0.465634
C      1.476269    0.880707    1.608802
C     -0.858037    1.162605    0.887401
N     -4.835210    1.877382   -1.012907
N     -1.980448    0.247349    0.746586
O      1.384119    2.216519   -1.948743
O     -1.242421    2.182227    1.519666
O      6.711518    0.678465   -0.536261
O      0.836660    0.416034   -0.680529
S      1.243229   -0.564267    2.537334
H      0.656714    0.217224   -3.814242
H      2.401608    0.620562   -3.635162
H      1.715624   -0.872639   -2.802150
H     -6.176176    2.434512   -2.540257
H     -4.451675    3.072500   -2.735641
H     -4.849430    1.348726   -3.028506
H     -6.832931    1.724994   -0.544078
H     -6.229861    0.360684   -1.493501
H     -5.855979    0.506819    0.298475
H      8.700314    1.347740   -0.496195
H      7.704722    1.953251    0.825023
H      7.384522    2.597252   -0.807206
H     -4.397778   -3.119216   -0.315914
H      1.276827   -5.128549    2.470186
H     -2.826286   -4.900324    0.419981
H     -0.870184   -5.557860    1.378488
H     -3.808101   -0.799942    0.010690
H      1.985886   -2.833469    2.827253
H      3.491104    2.708642    1.963781
H      2.555169   -0.990993    0.017164
H      5.796172    2.595386    1.003215
H      4.830173   -1.086712   -0.912950
H     -2.828079    2.089932   -1.269103
H     -3.345607    0.507475   -1.684415
H     -4.055665    0.698168    1.191743
H     -3.008824    1.919815    0.948264
H      0.769059    2.241690    0.178221
H      1.431483    1.781649    2.291360
