36

C     -4.262757    1.212193   -0.305146
C      4.906389    1.521490    0.714088
C      0.956931   -2.948686    0.082962
C     -3.780071   -0.167261    0.051348
C      4.128645    1.875536   -0.525369
C     -2.533192   -0.056952    0.899321
C     -1.484462    0.682326    0.117138
C     -1.160839   -0.035069   -1.144208
C     -0.652282   -1.417562   -0.890456
C      0.603172   -1.459166   -0.074471
C      2.343121    0.201927   -0.264820
O      2.094153    0.599023    0.891104
O      3.343796    0.807647   -1.000817
O      1.632941   -0.827394   -0.807010
H     -4.142251    1.878800    0.564949
H     -5.337829    1.166105   -0.575883
H     -3.722893    1.646806   -1.162737
H      4.550582    0.542497    1.084206
H      5.993232    1.472763    0.529177
H      4.674472    2.279925    1.496974
H      1.342298   -3.277851   -0.882108
H      0.041761   -3.540751    0.317015
H      1.670254   -3.089998    0.912734
H     -4.578984   -0.718339    0.605544
H     -3.606542   -0.759670   -0.861235
H      3.461434    2.748386   -0.389413
H      4.826490    2.154600   -1.361028
H     -2.768626    0.484207    1.865430
H     -2.129577   -1.056154    1.167564
H     -1.948305    1.672301   -0.151304
H     -0.595051    0.927102    0.732362
H     -2.016744   -0.092732   -1.845252
H     -0.364250    0.502675   -1.741210
H     -1.474772   -2.031871   -0.446385
H     -0.461689   -1.890521   -1.902335
H      0.451447   -1.006334    0.911978
