62

C     -1.373158    2.095637   -1.184818
C     -4.187074   -0.445698    2.149460
C     -5.463407   -0.827082    0.069288
C     -5.333649    1.388157    1.051677
C      7.632208    1.093968   -0.055860
C     -1.035211    1.317295    0.027641
C      3.192570   -0.234595   -1.906115
C      4.747734    0.154357    2.046660
C      1.897212   -1.058135   -1.965880
C      3.430794   -0.247591    1.836035
C     -1.120158   -0.983406   -2.263853
C     -2.567739   -0.758688   -1.888479
C      0.655052   -0.406202    1.540856
C     -0.814350   -0.661306    1.376216
C      4.984879    0.282227   -0.318355
C      3.687046   -0.114312   -0.507271
C      5.539998    0.424729    0.936263
C      2.898689   -0.383061    0.584718
C      1.521974   -0.804561    0.410307
C      0.963372   -0.394553   -0.959778
C     -0.416923   -0.918666   -0.982105
C     -2.627869   -0.544954   -0.388228
C     -4.526397    0.102634    0.811410
C     -1.247778   -0.145625   -0.000019
O      6.872089    0.832095    1.113444
O     -3.504441    0.428696   -0.016393
H     -1.093640    3.169382   -0.951898
H     -2.483274    2.170398   -1.372919
H     -0.802150    1.854061   -2.086912
H     -3.750956    0.312658    2.820040
H     -5.126847   -0.791925    2.627938
H     -3.551345   -1.348742    2.041310
H     -5.534284   -0.477069   -0.979213
H     -5.093673   -1.873324    0.128414
H     -6.498506   -0.755127    0.486320
H     -5.183063    2.100928    0.234693
H     -4.998439    1.861037    2.011176
H     -6.408438    1.127798    1.146326
H      8.629089    1.508958    0.196277
H      7.051873    1.889018   -0.609412
H      7.693137    0.222575   -0.731255
H     -0.013349    1.575614    0.344098
H     -1.694950    1.712402    0.858333
H      2.909334    0.789894   -2.230917
H      3.964230   -0.650753   -2.576542
H      5.169323    0.261761    3.035724
H      2.160273   -2.071660   -1.631586
H      1.514245   -1.002387   -2.985259
H      2.875300   -0.440558    2.762757
H     -1.075903   -2.021324   -2.713585
H     -0.765912   -0.324611   -3.070694
H     -3.218422   -1.621584   -2.142013
H     -2.972827    0.096585   -2.463502
H      0.963696   -1.050168    2.421517
H      0.870890    0.637517    1.918375
H     -1.011878   -1.733066    1.434525
H     -1.337357   -0.052633    2.143893
H      5.619854    0.498560   -1.193027
H      1.521451   -1.934817    0.371034
H      1.067780    0.691244   -1.133463
H     -0.358565   -1.979471   -0.582835
H     -2.842159   -1.542529    0.066127
