31

C     -1.889118   -1.126951   -0.842745
C      1.083200    1.001874    0.818319
C      2.370485    0.526967    1.080342
C      1.087338   -0.156644   -1.227561
C     -0.915703    1.133384   -0.656388
C      0.426171    0.661939   -0.345451
C      3.013597   -0.302959    0.162778
C      2.364292   -0.645062   -0.998355
C     -2.178298    0.153460    1.262696
C     -2.037711    0.238276   -0.187025
N     -3.260398    0.815386   -0.746927
O      4.294023   -0.745404    0.476355
O      2.972899   -1.463824   -1.925792
O     -3.215825    0.556662    1.829701
O     -1.162439   -0.376367    2.034206
O     -0.007668    0.376134   -0.000000
H     -2.854420   -1.702287   -0.764139
H     -1.113589   -1.738305   -0.385315
H     -1.755509   -0.940541   -1.928556
H      0.640658    1.633495    1.553780
H      2.892845    0.788299    1.989896
H      0.580700   -0.426523   -2.138780
H     -1.038988    1.234260   -1.763885
H     -1.061502    2.134212   -0.194903
H     -3.582693    1.639526   -0.189215
H     -3.011226    1.089417   -1.733158
H      4.864599   -1.341412   -0.089488
H      3.891998   -1.835562   -1.796552
H     -1.405386   -0.805319    2.939150
H      0.819809   -0.185438    0.000000
H     -0.812142   -0.190696   -0.000000
