26

C      3.962564    0.948396   -0.615645
C     -2.390471    0.243620   -1.000878
C      2.066128    0.743095    1.030183
C      1.847010   -0.288789   -1.082500
C      0.817887    0.284975    1.375690
C      0.595785   -0.754467   -0.750937
C     -1.256352   -0.963413    0.837202
C      2.599147    0.453661   -0.225318
C     -2.374685   -0.032332    0.478406
C      0.078556   -0.459032    0.500668
N     -3.619602   -0.667455    0.871912
H      4.618381    0.053503   -0.723399
H      3.856377    1.433880   -1.607988
H      4.346761    1.670261    0.106864
H     -1.637913    0.997040   -1.289416
H     -2.224925   -0.657817   -1.616261
H     -3.378210    0.656789   -1.331229
H      2.671458    1.329827    1.695361
H      2.259163   -0.517904   -2.065481
H      0.406567    0.510750    2.350112
H      0.074802   -1.331771   -1.488651
H     -1.430880   -1.914925    0.283180
H     -1.344542   -1.204676    1.933526
H     -2.320940    0.935838    1.012442
H     -4.412110    0.028279    0.795837
H     -3.809959   -1.497333    0.251240
