36

C     -5.359542    0.838761   -0.536110
C      5.352191    1.511853    0.945877
C      0.575006   -2.415242   -0.802648
C     -4.432539    0.717890    0.626533
C      5.472009    0.042453    1.234752
C     -3.146901   -0.023440    0.285254
C     -2.374081    0.654925   -0.793970
C     -1.125880   -0.132824   -1.090311
C     -0.220393   -0.262349    0.112946
C      1.001545   -1.066390   -0.324245
C      3.255376   -0.533536    0.522238
O      3.497901    0.031792   -0.560263
O      4.227464   -0.565806    1.492803
O      1.994602   -1.099165    0.666860
H     -4.952836    0.508360   -1.495744
H     -6.314177    0.272406   -0.386446
H     -5.687967    1.916848   -0.596234
H      5.958415    1.791837    0.040354
H      4.323321    1.824310    0.752963
H      5.780973    2.142090    1.776436
H      1.226357   -3.238578   -0.448486
H      0.456703   -2.423713   -1.913555
H     -0.433526   -2.621693   -0.386592
H     -4.175267    1.695182    1.085453
H     -4.936999    0.113910    1.411612
H      6.044722   -0.489061    0.443248
H      6.083338   -0.063342    2.163181
H     -3.346134   -1.078074    0.092596
H     -2.541543    0.033653    1.232958
H     -2.044049    1.682240   -0.512533
H     -2.943714    0.767973   -1.735121
H     -1.350636   -1.121258   -1.547142
H     -0.595330    0.435725   -1.909602
H      0.075482    0.742816    0.452753
H     -0.771704   -0.849143    0.892896
H      1.427812   -0.520403   -1.192708
