60

C     -1.845796   -0.399502   -2.373414
C     -5.376791   -1.132735   -1.426902
C     -4.576094    1.048507   -0.709798
C     -5.381157   -0.645178    0.941540
C      7.805462    1.412905   -0.006744
C     -0.941981   -0.899267   -1.305463
C      3.355549   -0.218814    1.814568
C      4.515167    2.036836   -1.602042
C      2.242266   -1.128984    1.506388
C      3.187631    1.742547   -1.391330
C     -0.710282   -1.987495    1.467996
C     -2.127249   -1.557333    1.726247
C      0.526636    1.496562   -0.330578
C     -0.922761    1.253688   -0.139967
C      5.147087    0.833169    0.403626
C      3.820097    0.528579    0.632226
C      5.485545    1.575508   -0.696766
C      2.884826    0.990406   -0.270795
C      1.495628    0.658066   -0.052554
C      1.237197   -0.728709    0.501518
C     -0.125088   -0.674066    1.048104
C     -2.465274   -0.566560    0.634136
C     -4.568396   -0.397671   -0.349552
C     -1.165300   -0.219875   -0.006278
O      6.828511    1.866405   -0.900979
O     -3.372143   -1.023468   -0.256321
H     -2.224077    0.609779   -2.294233
H     -2.732024   -1.083163   -2.506591
H     -1.326193   -0.464838   -3.385464
H     -5.200738   -0.704250   -2.428770
H     -6.465201   -1.139970   -1.165625
H     -5.051808   -2.187449   -1.446309
H     -3.782326    1.649153   -0.217837
H     -5.583194    1.510354   -0.466333
H     -4.474217    1.236801   -1.799385
H     -6.467898   -0.685954    0.710940
H     -5.123989   -1.635765    1.368950
H     -5.236455    0.188930    1.646553
H      8.798720    1.811922   -0.317014
H      7.913947    0.297415   -0.043605
H      7.645486    1.725601    1.036347
H      0.093661   -0.769395   -1.689862
H     -1.172843   -1.996706   -1.177132
H      3.000108    0.499338    2.610000
H      4.184657   -0.811281    2.271678
H      4.892974    2.612178   -2.431830
H      2.708075   -2.140075    1.269989
H      1.712390   -1.349200    2.488129
H      2.457285    2.102110   -2.079066
H     -0.691163   -2.695523    0.640312
H     -0.220040   -2.387824    2.386460
H     -2.835249   -2.390041    1.799649
H     -2.126235   -1.016231    2.691698
H      0.836182    2.473027   -0.751824
H     -1.494557    1.782972   -0.889899
H     -1.155310    1.706437    0.878718
H      5.859873    0.456641    1.127703
H      1.327483   -1.490860   -0.333732
H     -0.163859    0.042513    1.885287
H     -2.856755    0.379832    1.130083
