31

C     -1.682892   -1.311445    0.450803
C      0.994893   -1.298439   -0.908581
C      2.272389   -1.665193   -0.556059
C      1.416036    0.904358   -0.168617
C     -0.837789    0.390241   -1.102198
C      0.540856   -0.006152   -0.721971
C      3.141410   -0.748509   -0.003222
C      2.690587    0.541347    0.183865
C     -3.153348    0.469597   -0.214462
C     -1.740237    0.163753    0.090864
N     -1.313935    0.993254    1.194820
O      4.432406   -1.130799    0.349901
O      3.586173    1.450895    0.744156
O     -3.772597   -0.117626   -1.140770
O     -3.796948    1.427712    0.546204
O     -0.003154    0.374408   -0.000000
H     -1.896704   -1.891794   -0.467930
H     -0.705902   -1.600890    0.849579
H     -2.455179   -1.544621    1.236066
H      0.331737   -2.052049   -1.344980
H      2.579215   -2.682998   -0.720951
H      1.087599    1.920222   -0.011877
H     -1.166220   -0.251733   -1.943812
H     -0.871553    1.429798   -1.455692
H     -2.111533    1.087285    1.893585
H     -1.182218    1.964844    0.816059
H      5.073871   -0.479247    0.751254
H      3.328492    2.420624    0.913514
H     -4.788608    1.617567    0.490931
H      0.815232   -0.186136    0.000000
H     -0.812078   -0.188271   -0.000000
