37

C     -5.242720    1.269772   -1.471242
C     -4.244033    1.809329   -0.435583
C     -2.192570    0.191036    0.758517
C      5.398631    0.554226   -0.141669
C     -3.512203    0.301676    1.321697
C     -1.240088   -0.570017    1.329034
C      4.725761   -0.553478   -0.414170
C      5.920382    1.746392    0.037321
C      0.631740   -2.115742    0.811242
C      2.477729   -0.176290   -1.393086
C     -4.441170    1.031505    0.784741
C      0.121127   -0.697135    0.766790
C      3.293035   -0.511311   -0.167792
C      1.688115   -2.073534   -0.285585
C      1.217084   -0.968715   -1.159990
Br     5.862062    2.897606   -1.438910
Br    -6.185910    1.123509    1.605803
O      0.226944   -0.269390   -0.525946
O      2.877162   -1.741322    0.291240
H     -4.823147    1.276033   -2.484967
H     -5.491394    0.200620   -1.233504
H     -6.204530    1.816921   -1.419837
H     -4.584323    2.881166   -0.260229
H     -3.245879    1.885809   -0.838876
H     -1.911416    0.705527   -0.136617
H     -3.703881   -0.272100    2.248007
H     -1.542159   -1.081914    2.227868
H      5.345529   -1.316546   -0.780393
H      6.305385    1.892827    1.006630
H      1.044276   -2.412222    1.779958
H     -0.162112   -2.808747    0.452794
H      2.949215   -0.569488   -2.311007
H      2.270647    0.902139   -1.484286
H      0.792935   -0.094805    1.409152
H      3.029428    0.235956    0.605972
H      1.710561   -3.066225   -0.804947
H      0.839787   -1.423069   -2.113475
