32

C      4.310883   -0.409164   -0.721990
C      4.438498    0.951295   -0.592611
C     -3.620340    0.644483    0.315862
C      3.095984   -1.008647   -0.471402
C      3.361339    1.711540   -0.215417
C     -2.260448    1.099776   -0.228566
C      0.014565   -1.843003    0.247146
C     -3.325501   -0.554294    1.161899
C     -1.463669   -1.754810    0.406699
C      2.014261   -0.240217   -0.092011
C      0.701873   -0.551006    0.219128
C      2.140079    1.127842    0.038756
C     -1.361585    0.594692    0.904206
C      0.052113    0.612858    0.531259
N      0.931750    1.607399    0.417076
N     -1.887322   -0.674479    1.267367
H      5.155328   -1.002886   -1.017414
H      5.378240    1.436109   -0.783908
H     -3.993395    1.511906    0.916316
H     -4.326167    0.456933   -0.505189
H      2.951615   -2.062718   -0.559590
H      3.470891    2.776780   -0.116676
H     -2.068370    0.585043   -1.173357
H     -2.196227    2.195454   -0.299999
H      0.494455   -2.494641    1.029718
H      0.202069   -2.411472   -0.712416
H     -3.769902   -0.401658    2.159423
H     -3.779375   -1.461525    0.704137
H     -2.004131   -1.664398   -0.558591
H     -1.809364   -2.702645    0.914729
H     -1.574257    1.297487    1.761709
H      0.726110    2.627963    0.594130
