34

C     -2.900289   -1.072027   -0.829239
C     -3.296789    0.255237    1.237840
C     -4.191054    0.988903   -0.903129
C      2.853075   -0.288593    1.706543
C      1.525162   -0.299541    1.761086
C      2.083464   -0.685047   -0.452268
C      4.433700   -0.082073   -0.198041
C      3.302165   -0.889150    0.423502
C      0.958895   -0.902698    0.531131
C     -0.579186    0.826685   -0.185025
C     -2.990674    0.303588   -0.241222
N     -0.297968   -0.359545    0.133647
O      3.924592    1.200051   -0.416795
O      0.439442    1.771902   -0.161636
O     -1.880822    1.117349   -0.538199
H     -3.957195   -1.453959   -0.940948
H     -2.502706   -1.018234   -1.856054
H     -2.347351   -1.772080   -0.173160
H     -4.371329    0.435996    1.449958
H     -2.729479    1.015289    1.811175
H     -3.086661   -0.787271    1.582818
H     -4.042348    2.076904   -0.751313
H     -4.136752    0.777758   -2.011014
H     -5.139485    0.638532   -0.480474
H      3.524860    0.096464    2.473208
H      0.984269    0.100474    2.630257
H      2.141769    0.330286   -0.855968
H      2.100671   -1.470341   -1.239478
H      5.328025   -0.051394    0.449062
H      4.688404   -0.569643   -1.151157
H      3.580713   -1.957931    0.521280
H      0.898310   -2.016535    0.678309
H      4.616794    1.896907   -0.254170
H      1.065781    1.843738    0.656085
