25

C     -2.502730    1.646351   -0.214125
C      4.170555    0.591937    0.470779
C     -1.702637   -2.031482   -0.786134
C     -2.338011    0.318678   -0.921307
C      3.010809    0.279589   -0.455712
C     -1.833068   -0.755410    0.009724
C     -0.531900   -0.436380    0.617887
C      0.624260   -0.233077   -0.230237
O     -0.379189   -0.330695    1.867356
O      0.570794   -0.321910   -1.493206
O      1.842509    0.068800    0.313179
H     -1.573339    2.247012   -0.226354
H     -3.286297    2.282746   -0.680179
H     -2.804685    1.469243    0.831538
H      5.041030    0.845303   -0.164460
H      3.883716    1.481018    1.065608
H      4.351452   -0.302912    1.088778
H     -2.663716   -2.567374   -0.736917
H     -0.856379   -2.614145   -0.383603
H     -1.549537   -1.776867   -1.864899
H     -1.599213    0.478389   -1.727947
H     -3.333295    0.063156   -1.337670
H      3.231397   -0.597897   -1.103877
H      2.810544    1.139981   -1.120086
H     -2.583070   -0.944056    0.824016
