70

C     -5.337439    0.449782    1.136745
C     -4.438319   -0.748697    1.105112
C     -6.558961    0.203655    0.271321
C     -3.934065   -1.111257   -0.266197
C     10.760047    1.138024    0.617790
C     -1.121433   -1.334141   -1.021624
C      9.268053    1.282333    0.383827
C      0.376959   -0.979088   -1.065961
C      8.888795   -0.973071   -0.074491
C      2.403355   -2.027032   -0.895240
C      8.193753   -1.400123    1.170428
C      2.954622   -1.111267    0.157483
C      6.304721   -0.024962    0.990935
C      4.773609   -0.176174    1.041745
C     -9.968800    1.816453    1.425612
C     -9.855531    1.942589   -0.064143
C     -7.490984    1.380233    0.271943
C     -3.150682   -0.036916   -0.896478
C     11.478087    1.252230   -0.678152
C     -8.691480    1.169741   -0.563230
C    -10.589659   -0.007882   -0.917261
N     -1.930076   -0.172768   -1.209952
N    -10.975203    1.196452   -0.610116
N     -9.211743   -0.158126   -0.608584
O     -3.755589    1.175678   -1.163975
O     12.743132    1.146532   -0.654119
O     10.815304    1.465562   -1.877551
O    -11.446167   -0.970749   -1.466891
O      8.764827    0.326712   -0.454204
O      1.040048   -2.183383   -0.872778
O      6.822690   -1.266886    1.169288
O      4.355246   -1.039603    0.028733
S     -8.231700    1.621264    1.933608
H     -4.864115    1.401482    0.863527
H     -5.656702    0.557525    2.215961
H     -3.608612   -0.600372    1.825089
H     -5.036044   -1.611118    1.479094
H     -7.032576   -0.718100    0.673015
H     -6.257053    0.010330   -0.767541
H     -4.772522   -1.457839   -0.930500
H     -3.273614   -1.994583   -0.132753
H     11.014154    0.175707    1.098884
H     11.042074    1.942159    1.327660
H     -1.354829   -2.126638   -1.732888
H     -1.270125   -1.726494    0.016322
H      9.156234    2.265812   -0.163723
H      8.729379    1.432219    1.335950
H      0.547671   -0.238597   -0.247627
H      0.624253   -0.573100   -2.069572
H      8.424644   -1.586297   -0.907746
H      9.960122   -1.336010   -0.089322
H      2.679873   -1.589133   -1.899614
H      2.929890   -2.996680   -0.841107
H      8.661491   -0.992681    2.096585
H      8.380995   -2.514427    1.261438
H      2.742979   -1.439879    1.180065
H      2.532653   -0.075675    0.011850
H      6.508684    0.474522    0.036030
H      6.522176    0.679546    1.840473
H      4.341862    0.815100    0.906364
H      4.535363   -0.548012    2.056389
H    -10.613049    1.009655    1.775394
H    -10.282190    2.824153    1.826077
H     -9.883317    2.995259   -0.412744
H     -6.931425    2.269932   -0.052488
H     -8.487270    1.526122   -1.599961
H     -8.699922   -1.035815   -0.451791
H     -3.434044    1.822111   -1.871710
H     11.323926    1.899560   -2.648717
H    -12.456437   -0.784859   -1.568210
