54

C      5.066579   -1.820616    1.061357
C      5.626416   -0.059479   -0.519977
C     -3.846711   -0.577242   -0.726583
C     -0.698430    1.960854   -1.039298
C     -2.304596    2.162072    1.372926
C      3.022790    0.242885    0.773088
C      0.014450   -0.965538   -1.919939
C      1.756763    0.799708    0.896180
C     -1.388599   -0.637025   -1.563288
C     -3.320831    1.307480    0.716643
C     -0.916141    1.637767    1.381186
C      2.287308   -1.038011   -1.047403
C     -3.191534   -0.961445    1.582076
C      4.690351   -1.254258   -0.290172
C      3.318347   -0.688068   -0.200240
C      1.027787   -0.502472   -0.946652
C      0.782076    0.419832    0.037416
C     -1.510991   -0.229910   -0.113403
C     -2.898753   -0.067464    0.367684
C     -0.622039    0.966586    0.090509
N     -4.559445   -0.818345    1.955352
Cl     0.691821    0.000000    0.000000
H      4.220487   -2.372856    1.507798
H      5.323124   -0.944134    1.714179
H      5.988447   -2.429811    0.995366
H      5.541502    0.572093    0.388557
H      6.670063   -0.407752   -0.670171
H      5.228612    0.526345   -1.365206
H     -3.825953   -1.668591   -0.794324
H     -3.731287   -0.035602   -1.663774
H     -4.876022   -0.316018   -0.341579
H     -0.113070    2.859535   -0.698967
H     -0.141154    1.593533   -1.937578
H     -1.699390    2.314778   -1.269504
H     -2.305496    3.159862    0.843790
H     -2.570008    2.430629    2.437819
H      3.805750    0.543538    1.457876
H      0.256327   -0.552864   -2.936511
H      0.170934   -2.075277   -2.036195
H      1.541625    1.528599    1.664940
H     -2.012992   -1.540625   -1.720009
H     -1.786015    0.146529   -2.248353
H     -3.778867    1.783084   -0.200286
H     -4.199484    1.230982    1.425351
H     -0.224337    2.528387    1.460147
H     -0.670896    1.017610    2.268995
H      2.533985   -1.780013   -1.818590
H     -2.562404   -0.689295    2.444384
H     -2.908236   -1.998837    1.281881
H      4.798858   -1.983537   -1.092404
H     -1.046575   -1.077928    0.474036
H     -4.739015   -0.860211    2.977961
H     -5.223306   -1.379465    1.384087
H     -0.691821    0.000000    0.000000
