70

C      4.421118   -1.418147    1.524411
C      2.894037   -0.577412    3.234541
C      5.495655    2.225854   -2.914928
C     -0.676114   -3.749967    0.743869
C     -1.791369   -3.299766    2.786554
C     -1.952083   -1.739238   -1.531949
C     -3.965564   -1.863178   -0.312029
C     -0.885296   -5.107319    0.913771
C     -1.994718   -4.641617    2.944200
C     -2.513243   -2.406008   -2.595507
C     -4.547936   -2.525675   -1.352271
C      1.833009    1.699664   -2.767400
C      0.826883    1.196256   -1.991987
C     -2.079661    5.201423   -1.175815
C     -2.683301    3.840384   -0.988795
C      3.378361    1.071960   -1.054873
C     -0.392410    3.553154   -0.115550
C      3.487893   -0.246304    1.872691
C     -1.115711   -2.851832    1.656006
C     -2.625047   -1.439199   -0.368737
C     -1.546915   -5.580950    2.017964
C     -3.837972   -2.796277   -2.478059
C      3.150146    1.643860   -2.299615
C      1.055892    0.628321   -0.760684
C      2.376791    0.556689   -0.259823
C     -0.738910    4.791788    0.682372
C     -0.972650   -1.372096    1.506677
C     -2.062356   -0.716969    0.759841
C      0.027136    0.047189    0.081991
C     -2.010175    1.619497   -0.093593
Cl    -1.822174   -7.308287    2.248793
Cl    -4.578016   -3.650782   -3.822977
N     -1.589713    5.623737    0.153964
N      0.186826   -1.011796    0.773752
N     -1.688153    2.901309   -0.410980
N     -1.326164    0.485009    0.232080
O     -0.163681    5.001146    1.912265
O     -3.327215    1.420993   -0.105937
O      4.125295    2.163345   -3.131650
O      2.562445    0.011638    0.911814
H      3.908039   -2.216829    0.985072
H      5.357543   -1.054735    1.017335
H      4.760443   -1.841258    2.488979
H      2.107761    0.132725    3.562267
H      3.740771   -0.687242    3.952791
H      2.410613   -1.587164    3.172347
H      6.097528    1.782440   -3.776764
H      5.806198    3.278421   -2.779465
H      5.767864    1.570567   -2.064379
H     -0.131336   -3.401397   -0.146869
H     -2.157925   -2.571232    3.509911
H     -0.893459   -1.429233   -1.608248
H     -4.544079   -1.637098    0.574686
H     -0.511182   -5.829766    0.147149
H     -2.518260   -5.006617    3.815160
H     -1.920822   -2.605906   -3.483291
H     -5.599611   -2.863066   -1.361856
H      1.695699    2.156712   -3.755185
H     -0.185119    1.266001   -2.384006
H     -1.247850    5.212627   -1.909841
H     -2.838707    5.949678   -1.469856
H     -2.973125    3.477043   -2.004469
H     -3.541910    3.890306   -0.314489
H      4.385864    1.040806   -0.725702
H      0.151870    3.780069   -1.016042
H      0.156542    2.870194    0.533998
H      4.186652    0.594201    2.001204
H     -0.904360   -0.919048    2.549336
H     -2.882060   -0.318911    1.439802
H     -0.618521    5.587317    2.626025
