70

C      2.195830    5.346537   -1.602223
C     -0.000228    4.339966   -1.703472
C     -6.008828   -4.161382    0.073158
C     -6.114702    0.458544    2.134872
C     -6.850467   -0.660376    2.377119
C      5.777083   -3.695803    1.478519
C     -5.115595    0.434121    1.151776
C     -6.600435   -1.790100    1.654562
C      4.431164    0.637538   -0.827586
C      5.483909    0.080944   -0.137136
C     -2.220818    0.381516   -2.024033
C      6.598695   -2.605212    2.098916
C      4.353025   -3.713624    1.984271
C     -1.260895   -0.772296   -1.915673
C      2.931058   -0.940420    0.078710
C      1.910590    3.121130   -0.697948
C      2.033188    0.806718   -1.523827
C     -3.820784   -0.766486   -0.660203
C     -2.177844    0.686479    0.295105
C      1.460732    4.009102   -1.804419
C      3.127468    0.144834   -0.740414
C     -4.839244   -0.686568    0.408447
C     -5.618962   -1.821313    0.686126
C      5.287592   -1.010367    0.686886
C      4.000557   -1.492813    0.769853
C     -0.744775    0.358171    0.056490
C      0.115533    1.551531   -0.033314
N     -3.039507    0.432379   -0.832903
N      1.292975    1.769340   -0.748627
O     -0.315513    2.543006    0.679571
O     -5.351938   -2.942270   -0.048881
O      6.460990   -1.442234    1.306205
O      3.619829   -2.589393    1.555110
O     -0.460113   -0.671381   -0.802807
H      1.944910    6.058916   -2.417551
H      1.869298    5.755256   -0.630221
H      3.256770    5.104081   -1.521225
H     -0.193146    4.853441   -0.738877
H     -0.679909    3.490909   -1.835188
H     -0.261122    5.127573   -2.476772
H     -6.815241   -4.283130   -0.693677
H     -6.384081   -4.359386    1.090881
H     -5.261518   -4.960751   -0.191486
H     -6.304082    1.364311    2.702941
H     -7.622758   -0.665967    3.127317
H      5.837311   -3.607142    0.389974
H      6.239285   -4.663561    1.763374
H     -4.565854    1.344202    0.975983
H     -7.208903   -2.682437    1.867351
H      4.598687    1.496679   -1.474163
H      6.490176    0.465454   -0.208211
H     -1.602260    1.303684   -2.017691
H     -2.831815    0.331839   -2.949852
H      7.666064   -2.874873    2.220274
H      6.116784   -2.360638    3.088737
H      3.864671   -4.612458    1.555208
H      4.348295   -3.827535    3.074407
H     -0.645795   -0.871651   -2.861508
H     -1.824898   -1.714529   -1.864111
H      1.961371   -1.363081    0.188456
H      1.579488    3.600753    0.269234
H      2.996523    3.068819   -0.643080
H      2.537199    1.306069   -2.407352
H      1.400163    0.032666   -1.957897
H     -4.294315   -0.996754   -1.655896
H     -3.193612   -1.673616   -0.422852
H     -2.296877    1.799031    0.499430
H     -2.571209    0.188860    1.221456
H      1.728985    3.597845   -2.810265
H     -0.418157   -0.112695    1.091315
