50

C     -2.753474   -1.838402    0.599057
C     -4.327407   -1.332699   -1.097220
C     -3.002709   -3.183781    0.415210
C     -4.590002   -2.678023   -1.290923
C     -3.711706    1.084046    1.322039
C     -3.365851    2.564252    1.367763
C      3.712426    1.240419    0.595019
C      3.072443   -0.658004   -0.627008
C      5.315067   -0.508988    0.181323
C     -1.425049    2.325388   -0.009726
C      1.328107    1.067253   -0.272378
C     -0.770428    0.040654   -0.771567
C      2.754167    0.557401   -0.078523
C     -3.423904   -0.878541   -0.170642
C     -1.677270    0.852921    0.064858
C      5.006052    0.719288    0.735447
C      4.327408   -1.198724   -0.509081
C     -3.922451   -3.624724   -0.532393
C     -3.137036    0.560477   -0.010395
C      6.073138    1.436975    1.467614
C      4.613987   -2.499538   -1.165408
F     -4.189858   -4.933493   -0.729909
F      5.715991    2.715601    1.813075
F      6.479032    0.692661    2.568250
F      7.170271    1.498004    0.608749
F      5.823264   -2.979775   -0.707540
F      4.674846   -2.290855   -2.541049
F      3.550159   -3.307208   -0.889657
N     -2.702148    3.016072    0.186905
O      0.525936    0.016763   -0.454882
H     -2.030863   -1.454099    1.331228
H     -4.876237   -0.616375   -1.733515
H     -2.468689   -3.937236    1.015549
H     -5.329698   -3.015276   -2.017333
H     -3.187056    0.589679    2.168302
H     -4.784458    0.909771    1.365684
H     -2.680392    2.801688    2.235286
H     -4.258307    3.188098    1.509237
H      3.468882    2.190580    1.022108
H      2.322740   -1.207841   -1.166692
H      6.295792   -0.956057    0.270569
H     -1.112980    2.564767   -1.052425
H     -0.754818    2.729803    0.752683
H      1.088957    1.515514    0.760682
H      1.410656    1.839296   -1.025473
H     -0.821173    0.511181   -1.827786
H     -1.159401   -0.994172   -0.959787
H     -1.381494    0.621577    1.180348
H     -3.628173    1.121029   -0.816791
H     -3.256291    3.122655   -0.661183
