50

C     -4.881223   -0.228606   -0.316642
C     -3.624899   -2.189445   -0.086127
C     -5.931227   -0.930117   -0.878032
C     -4.656393   -2.912435   -0.646209
C     -3.079245    1.008971    1.687577
C     -3.140184    2.401305    1.173935
C      4.257483    1.323483   -0.496424
C      3.289603   -0.855124   -0.331666
C      5.608270   -0.656579   -0.515714
C     -1.369377    1.817580   -0.383592
C      1.740127    1.102756   -0.240122
C     -0.180779   -0.024762    0.674923
C      3.146462    0.520561   -0.376262
C     -3.702594   -0.797477    0.101838
C     -1.437927    0.341426   -0.107319
C      5.510040    0.731638   -0.567281
C      4.523153   -1.478548   -0.395188
C     -5.819925   -2.292148   -1.046354
C     -2.629321   -0.040384    0.742249
C      6.737026    1.551777   -0.666320
C      4.535659   -2.945019   -0.333703
F     -6.851005   -3.009123   -1.593087
F      6.417783    2.770039   -1.218504
F      7.686185    0.850810   -1.373884
F      7.165409    1.738989    0.657995
F      3.922607   -3.325088    0.874295
F      3.755372   -3.485728   -1.347437
F      5.810083   -3.490703   -0.328897
N     -2.550225    2.560962   -0.127404
O      0.973612    0.134190    0.217501
H     -4.957273    0.852197   -0.181100
H     -2.692988   -2.646531    0.273540
H     -6.841386   -0.402423   -1.181469
H     -4.579458   -3.985135   -0.804828
H     -2.378965    1.024062    2.565702
H     -4.060752    0.668671    2.119712
H     -4.222705    2.703742    1.139491
H     -2.670507    3.152864    1.849070
H      4.126058    2.395904   -0.529581
H      2.371433   -1.433898   -0.251260
H      6.582319   -1.097806   -0.579058
H     -0.544251    2.319710    0.203307
H     -1.069336    1.949977   -1.449230
H      1.492643    1.355999   -1.309737
H      1.777052    2.057846    0.336174
H     -0.347178    0.422088    1.743093
H     -0.412947   -1.135189    0.962672
H     -1.439273   -0.279715   -1.018306
H     -2.149618   -0.835294    1.444850
H     -3.207423    2.719727   -0.906398
