39

C     -3.884825   -1.152245   -1.018936
C     -1.997380    2.079032   -0.430692
C     -3.180980    1.228240   -0.678190
C      2.806485    0.621083   -1.434574
C     -0.815536    1.415747    0.184368
C      4.108375    0.669987   -0.667611
C      1.955969   -1.276730   -0.007920
C     -2.845221   -0.225665   -0.431644
C      1.732479    0.112531   -0.556216
C      0.976872   -1.400719    1.140077
C     -0.401146   -0.970718    0.831329
C     -0.571514   -0.005177   -0.303285
O      4.035756    1.498275    0.451240
O      1.044759   -2.754039    1.552211
O     -0.930121   -0.360640    1.993747
O     -1.654016   -0.462007   -1.066068
O      0.489846    0.051897   -1.174600
H     -3.353640   -2.121347   -1.242296
H     -4.268862   -0.799941   -1.987737
H     -4.680558   -1.401771   -0.285098
H     -1.697870    2.576990   -1.394882
H     -2.308586    2.915641    0.234681
H     -4.046914    1.460374    0.008555
H     -3.593282    1.350570   -1.706018
H      2.973233   -0.126806   -2.252945
H      2.591433    1.581202   -1.904425
H      0.070008    2.074766   -0.017463
H     -0.930675    1.430259    1.288314
H      4.940848    1.066970   -1.315044
H      4.462272   -0.324128   -0.343775
H      1.633243   -2.042608   -0.773070
H      2.959210   -1.472327    0.361915
H     -2.843397   -0.381036    0.652062
H      1.639592    0.817280    0.321181
H      1.447041   -0.833106    1.987302
H     -1.016228   -1.896005    0.699149
H      4.405923    1.059617    1.265899
H      2.004944   -2.985369    1.521605
H     -1.257538   -1.018076    2.634224
