44

C      5.828200   -0.212045    0.780342
C      3.933644    0.082339   -2.600987
C     -7.009088    0.917062   -0.050102
C     -6.547086   -0.061075    0.821326
C     -6.129941    1.848240   -0.517844
C     -5.217088   -0.073890    1.194886
C     -4.800893    1.828832   -0.138287
C      1.194312   -1.337862    0.049051
C      3.415288   -0.245527    0.520966
C     -2.905971    0.867465    1.112003
C     -0.894536   -0.051885    0.565808
C     -4.335517    0.871999    0.716563
C      2.016321   -0.069919    0.142833
C     -0.201888   -0.985955   -0.382556
C      4.207912   -1.233158   -0.626453
O      1.437826    0.553731    1.337642
O     -0.294961   -0.471157   -1.669782
O      5.301199   -1.210282    0.044744
O      4.739761   -0.068733   -1.562092
O     -2.260220    0.003771    0.232518
H      6.002683    0.746706    0.242907
H      5.313978   -0.011818    1.734748
H      6.902591   -0.552935    1.074131
H      4.374430    0.934361   -3.226392
H      4.109776   -0.791436   -3.326513
H      2.892307    0.324016   -2.528397
H     -8.054908    0.907068   -0.325456
H     -7.250409   -0.798057    1.194620
H     -6.492670    2.596762   -1.188297
H     -4.823332   -0.814767    1.863252
H     -4.125106    2.576692   -0.522856
H      1.154094   -1.858279    1.041782
H      1.655953   -2.024309   -0.677849
H      3.544720   -0.877891    1.372739
H      4.019840    0.638641    0.513142
H     -2.758898    0.569414    2.160254
H     -2.528413    1.918999    0.996803
H     -0.536240    1.007724    0.409825
H     -0.791576   -0.335517    1.614084
H      1.739415    0.567873   -0.682263
H     -0.789540   -1.961051   -0.452671
H      3.362719   -1.250661   -1.145263
H      2.032239    1.305542    1.554940
H     -0.430927    0.512752   -1.667849
