44

C     -4.836076   -2.086905    1.379674
C     -4.791894    1.010859   -1.181550
C      6.520056    0.121336   -1.627645
C      5.960780   -1.072972   -1.199835
C      5.859140    1.284952   -1.293421
C      4.796134   -1.053878   -0.476201
C      4.680898    1.304242   -0.561269
C     -0.633646    0.797671   -0.208110
C     -2.922219   -0.069753    0.303426
C      2.861636    0.062670    0.664251
C      1.095931    1.381406    1.426230
C      4.127835    0.100400   -0.137319
C     -1.789013   -0.075353   -0.621388
C     -0.037331    0.437868    1.114815
C     -3.955983   -1.163830   -0.614635
O     -2.164439    0.281812   -1.906233
O      0.290180   -0.879124    1.280593
O     -5.131271   -1.076485    0.529451
O     -4.466857   -0.249918   -1.327620
O      2.219975    1.265906    0.668629
H     -4.835581   -3.096917    0.890717
H     -5.723273   -2.159793    2.084570
H     -3.974078   -1.991803    2.035553
H     -4.077261    1.805607   -0.976806
H     -5.304474    1.345631   -2.157604
H     -5.665355    1.096089   -0.446965
H      7.431737    0.150298   -2.201229
H      6.496599   -1.981444   -1.471818
H      6.302066    2.214993   -1.627166
H      4.403474   -2.039058   -0.165435
H      4.174191    2.220502   -0.304948
H     -0.932108    1.845333   -0.254834
H      0.163896    0.635726   -0.975423
H     -3.565017    0.756414    0.428025
H     -2.809495   -0.643772    1.200526
H      2.200424   -0.637388    0.063553
H      3.082166   -0.375851    1.642339
H      1.368232    1.346268    2.519117
H      0.742070    2.451152    1.297413
H     -1.452064   -1.148965   -0.726848
H     -0.822398    0.668347    1.904026
H     -3.558325   -1.875198   -0.059650
H     -1.364715    0.586922   -2.424065
H      0.035454   -1.493994    0.585389
