42

C     -4.776972    1.716738    1.200772
C     -5.998546   -1.134642   -0.791032
C      6.785137    1.232508   -0.292672
C      5.937978    1.847438    0.604160
C      6.283620    0.290468   -1.174732
C      4.596358    1.538688    0.636868
C      4.920809   -0.010103   -1.127384
C     -2.720690   -0.430041   -0.438399
C      2.614312    0.297085   -0.164525
C      1.041750   -0.996537   -1.295433
C      4.093813    0.610092   -0.230365
C      0.174830   -1.526694   -0.215198
C     -1.784825   -0.114589    0.701994
C     -4.113652    0.084706   -0.201382
C     -0.387812   -0.517531    0.697354
O      0.799252   -2.574878    0.436791
O     -4.191945    1.456075   -0.030912
O     -4.987193   -0.312016   -1.222073
O      2.295955   -0.631935   -1.083030
O     -1.385756   -1.098725    1.585011
H     -5.791083    1.255799    1.160225
H     -4.227751    1.172112    1.975670
H     -4.804952    2.810848    1.357461
H     -5.640001   -2.079422   -0.336183
H     -6.663867   -0.572652   -0.123571
H     -6.602638   -1.428640   -1.672486
H      7.845537    1.454448   -0.342419
H      6.349152    2.578672    1.282852
H      6.903588   -0.209997   -1.885631
H      3.935616    2.038409    1.358102
H      4.489395   -0.745214   -1.804737
H     -2.701881   -1.482150   -0.726005
H     -2.328094    0.135718   -1.328910
H      2.466026   -0.106582    0.892586
H      2.089220    1.255169   -0.235297
H      0.516641   -0.134886   -1.831813
H      1.059043   -1.796105   -2.127367
H     -0.746042   -2.041698   -0.727685
H     -2.017375    0.865402    1.195991
H     -4.508816   -0.402882    0.709244
H      0.311987    0.148049    1.226099
H      0.869870   -2.440507    1.403632
