42

C     -5.711946    1.038010   -1.850000
C     -3.907701   -1.896548   -0.559386
C      6.840334   -1.041384    1.360565
C      6.033309   -1.756544    0.508433
C      6.424403    0.185653    1.841928
C      4.803319   -1.228504    0.143089
C      5.175954    0.684839    1.449974
C     -1.262541    0.781747   -0.426516
C     -3.484819    1.272429    0.640542
C      3.048397    0.555709    0.215551
C      1.159247    0.122730   -1.084813
C      4.360745   -0.020734    0.598806
C     -2.083696    0.811560    0.841107
C      0.106377    0.316668   -0.071440
C     -4.225865    0.380538   -0.289569
O     -2.061775   -0.453973    1.433674
O      0.359284    0.090983    1.092717
O     -5.552875    0.848851   -0.483225
O     -4.352768   -0.903001    0.278713
O      2.375938   -0.273385   -0.640003
H     -5.555082    0.079151   -2.418293
H     -6.776476    1.340092   -2.036927
H     -5.057925    1.811148   -2.262424
H     -4.017326   -2.912205   -0.093411
H     -4.590369   -1.919979   -1.452723
H     -2.895514   -1.772897   -0.928976
H      7.823281   -1.427079    1.673191
H      6.379989   -2.705502    0.149640
H      7.054748    0.752154    2.511972
H      4.148307   -1.777827   -0.530611
H      4.866156    1.640894    1.832607
H     -1.701727    0.214487   -1.248824
H     -1.210531    1.851814   -0.811527
H     -3.542554    2.349182    0.338763
H     -3.956032    1.274276    1.671396
H      2.536551    0.776725    1.176695
H      3.209506    1.556836   -0.250370
H      0.794182   -0.630587   -1.838464
H      1.273072    1.065798   -1.696580
H     -1.520501    1.490817    1.533511
H     -3.735477    0.309897   -1.255588
H     -1.569598   -1.132278    0.936796
