40

C     -4.513111   -1.722908    0.522229
C     -4.883645    0.716044   -2.345231
C      5.239358   -0.978819   -1.454269
C      5.648806   -0.890336   -0.146494
C      3.907271   -0.870872   -1.788915
C      4.696751   -0.689470    0.839566
C      2.955661   -0.670882   -0.811071
C     -2.024393    0.456220   -0.582673
C      2.330254   -0.369171    1.567369
C      1.979367    1.782124    0.749724
C      3.375376   -0.584332    0.488393
C      0.563391    1.602958    0.379065
C     -1.617155    0.418591    0.852221
C     -3.414615   -0.142750   -0.777224
C     -0.359288    0.910532    1.296575
O      0.148832    2.026539   -0.677703
O     -3.508272   -1.452093   -0.379388
O     -3.745915   -0.081308   -2.141209
O      2.325426    0.984392    1.792944
O     -1.575430    1.687294    1.517180
H     -4.475485   -2.808535    0.764633
H     -4.373346   -1.132133    1.429400
H     -5.524650   -1.529460    0.055084
H     -5.144627    0.764623   -3.418618
H     -4.675199    1.712087   -1.921659
H     -5.690834    0.260439   -1.752807
H      5.964841   -1.136828   -2.254621
H      6.715251   -0.980397    0.085341
H      3.556730   -0.938132   -2.824408
H      5.048046   -0.623371    1.864393
H      1.910077   -0.589828   -1.110211
H     -1.296146   -0.109392   -1.192587
H     -2.053456    1.536336   -0.913560
H      1.391208   -0.817925    1.232538
H      2.676181   -0.947615    2.447691
H      2.603751    1.664016   -0.159047
H      2.083396    2.841176    1.093938
H     -2.133567   -0.401740    1.425171
H     -4.159771    0.465544   -0.253212
H      0.048932    0.639382    2.309414
