47

C     -1.578929    1.871091    0.303104
C     -5.976739   -1.556028    0.373856
C     -4.901136    1.765101    0.332888
C      7.419785   -0.182881   -0.644010
C      6.680432   -0.401561    0.497714
C      6.779647    0.026567   -1.848494
C      5.306762   -0.399940    0.375722
C      5.385928    0.022238   -1.939411
C     -2.831997   -1.064145    0.991787
C      3.130813   -0.209242   -0.852164
C      1.319895   -0.535073    0.590570
C     -0.916340    0.628291    0.745229
C      4.643962   -0.196421   -0.798046
C     -1.529598   -0.673420    0.472744
C      0.514257    0.666711    0.224302
C     -4.087288   -0.325571    0.648716
O     -1.420004   -1.017846   -0.918054
O      0.610031    0.961948   -1.113974
O     -5.144058   -1.057729    1.352349
O     -4.229369    0.928541    1.210395
O      2.672856   -0.445081    0.408558
H     -0.764293    2.583236   -0.065567
H     -2.070784    2.475936    1.093890
H     -2.186911    1.709129   -0.601662
H     -5.368533   -2.227629   -0.276739
H     -6.348701   -0.763516   -0.277505
H     -6.784277   -2.195166    0.794898
H     -4.935706    2.768942    0.860344
H     -5.991986    1.489195    0.258168
H     -4.524345    1.811070   -0.677776
H      8.510240   -0.182222   -0.557892
H      7.119622   -0.570868    1.464943
H      7.412822    0.193238   -2.712950
H      4.726643   -0.570264    1.264621
H      4.914942    0.186319   -2.880465
H     -2.845040   -1.162874    2.125367
H     -3.072086   -2.156452    0.703446
H      2.793764   -0.946617   -1.588617
H      2.870349    0.849301   -1.157907
H      1.136578   -0.771734    1.662690
H      0.975342   -1.424116   -0.003714
H     -0.785095    0.692277    1.878262
H     -0.787994   -1.443140    0.919430
H      1.027791    1.540397    0.749485
H     -4.418391   -0.420762   -0.394895
H     -2.190369   -0.644984   -1.411225
H     -0.262491    0.901811   -1.582407
