47

C     -0.345690    1.130761   -2.551729
C     -4.397685   -2.511572   -0.740191
C     -4.727675    0.451901    1.806056
C      5.290813   -1.367531    1.062954
C      4.303329   -1.491533    1.998544
C      5.390636   -0.246583    0.281946
C      3.391289   -0.471164    2.159801
C      4.466329    0.765772    0.458860
C     -2.473697    0.368490   -0.538224
C      2.469419    1.779661    1.580044
C      1.695517    1.636801   -0.570118
C     -0.142372    0.199224   -1.406167
C      3.459643    0.676450    1.389629
C     -1.373388   -0.545472   -0.973238
C      0.386541    0.994012   -0.205395
C     -3.713933   -0.382483   -0.104387
O     -1.742569   -1.361070   -2.043559
O      0.485174    0.136300    0.849204
O     -4.296147   -1.175961   -1.022791
O     -4.561112    0.579404    0.454976
O      2.190049    2.409253    0.421101
H     -1.157693    0.827987   -3.238036
H     -0.535384    2.175153   -2.212382
H      0.584256    1.185524   -3.171091
H     -5.003750   -2.709113    0.193839
H     -3.387097   -2.889412   -0.479593
H     -4.805747   -3.136059   -1.520856
H     -5.411826    1.259408    2.137156
H     -5.138697   -0.555771    2.015675
H     -3.756985    0.628389    2.307182
H      6.003199   -2.179442    0.946213
H      4.247691   -2.376278    2.594859
H      6.155808   -0.116188   -0.464269
H      2.589422   -0.521093    2.888094
H      4.553563    1.644175   -0.159996
H     -2.116099    0.853322    0.421993
H     -2.679402    1.201574   -1.217098
H      3.008943    2.545161    2.264157
H      1.641207    1.412484    2.196138
H      2.420360    0.813816   -0.868571
H      1.558735    2.212908   -1.537051
H      0.664989   -0.515013   -1.689572
H     -1.135743   -1.216372   -0.127158
H     -0.382894    1.778651    0.000663
H     -3.397895   -1.013932    0.755499
H     -1.114665   -2.135184   -2.023501
H      0.841231   -0.749355    0.614837
