45

C     -1.913034    0.295545    2.345014
C      5.405473   -1.622794   -0.458715
C      5.329431    2.206640   -1.062331
C     -6.411922    1.089837    0.105716
C     -6.289375   -0.190439    0.603172
C     -5.412708    1.685165   -0.633518
C     -5.139768   -0.912366    0.364165
C     -4.260519    0.932681   -0.860600
C      0.725940   -1.041204    0.280017
C      2.598737    0.224288   -0.791568
C     -2.867440   -1.137304   -0.636517
C     -1.538388    0.031165    0.880288
C     -4.097673   -0.348276   -0.382091
C      2.198394   -0.877388    0.154954
C     -0.027263    0.104696    0.784643
C      4.113150    0.279451   -0.843510
O      2.801678   -0.566384    1.382420
O      0.545424    1.120612    1.129955
O      4.582780   -0.925684   -1.299991
O      4.544953    1.283886   -1.720401
O     -2.003678   -1.184550    0.450343
H     -1.666348   -0.571470    2.975326
H     -2.988726    0.545324    2.400925
H     -1.294532    1.159638    2.663445
H      6.337711   -1.049195   -0.189311
H      5.813428   -2.483278   -1.069157
H      4.930379   -1.969770    0.454653
H      4.776816    2.709037   -0.222257
H      5.533406    3.038842   -1.795141
H      6.294171    1.812423   -0.715150
H     -7.318697    1.655817    0.295652
H     -7.097273   -0.623394    1.179879
H     -5.478458    2.682524   -1.035075
H     -4.990867   -1.926837    0.733442
H     -3.452215    1.365581   -1.441112
H      0.460256   -1.943243    0.869778
H      0.340617   -1.270732   -0.757378
H      2.229245    1.180936   -0.389588
H      2.164522    0.081412   -1.807283
H     -3.202893   -2.196418   -0.802166
H     -2.339185   -0.780911   -1.546888
H     -1.910965    0.883262    0.310021
H      2.614113   -1.863102   -0.155650
H      4.495353    0.447561    0.178803
H      2.865952   -1.331585    1.975672
