42

C      4.252124   -2.123672   -1.850088
C      5.460682    1.215242   -0.608145
C     -5.998429    0.092596    1.071865
C     -5.577264    0.994595    0.129485
C     -5.099702   -0.403244    1.984716
C     -4.251102    1.433212    0.062934
C     -3.797583    0.025370    1.921729
C      2.799491   -0.181996    0.722755
C     -1.925474    1.347573    0.971374
C     -1.527622    0.689542   -1.230340
C     -3.357280    0.930689    0.981907
C     -0.746841   -0.546777   -0.951105
C      1.432161   -0.698669    0.385543
C      3.874798   -0.455742   -0.252906
C      0.733689   -0.267478   -0.839541
O     -1.137939   -1.222288    0.198571
O      4.174618   -1.749844   -0.548135
O      5.050351    0.215010    0.233715
O     -1.471266    1.669855   -0.281569
O      1.419432   -1.597305   -0.720881
H      3.385458   -2.008643   -2.488848
H      4.464378   -3.237097   -1.840668
H      5.123445   -1.704791   -2.398845
H      4.671909    2.010623   -0.748346
H      5.743856    0.887587   -1.620411
H      6.309501    1.728405   -0.115346
H     -7.045646   -0.220068    1.083732
H     -6.255591    1.406119   -0.604525
H     -5.438996   -1.108415    2.718068
H     -3.957381    2.138091   -0.680936
H     -3.101861   -0.382294    2.657155
H      3.085411   -0.416176    1.782453
H      2.684532    0.947204    0.753759
H     -1.894260    2.290366    1.580249
H     -1.332640    0.623003    1.536719
H     -1.110862    1.117613   -2.182748
H     -2.576921    0.358383   -1.455474
H     -0.960998   -1.263952   -1.791529
H      0.745477   -0.970398    1.229430
H      3.671674    0.082287   -1.200433
H      1.188550    0.352329   -1.616940
H     -1.705877   -1.996846    0.033664
