47

C     -0.706160   -1.662657   -0.070551
C     -3.731552    1.961549   -1.562276
C     -5.336733   -1.485829   -0.895977
C      6.212095    0.820257    0.044880
C      6.000834   -0.130776    0.999481
C      5.275078    1.053869   -0.923543
C      4.821046   -0.843134    0.956499
C      4.087238    0.328991   -0.958008
C     -2.975363   -0.247265    1.059180
C      2.582761   -1.449105   -0.006047
C      1.381428    0.298375    0.967086
C     -0.817043   -0.179545   -0.134845
C      3.847290   -0.633161   -0.011422
C     -1.600253    0.317398    1.039327
C      0.503171    0.556900   -0.206898
C     -3.817892    0.104196   -0.153516
O     -1.667159    1.707204    1.088869
O      0.133581    1.931114   -0.208242
O     -4.009579    1.462283   -0.303659
O     -5.049298   -0.554418    0.074268
O      1.798699   -0.995452    1.013691
H     -1.756148   -2.071980   -0.171048
H     -0.167452   -2.130388   -0.917894
H     -0.308779   -1.982057    0.898043
H     -2.685984    1.809475   -1.878927
H     -3.891641    3.060223   -1.567407
H     -4.356450    1.492905   -2.353695
H     -6.298675   -1.995624   -0.711851
H     -5.416043   -1.007458   -1.894801
H     -4.514787   -2.230055   -0.927081
H      7.140084    1.411776    0.042337
H      6.713411   -0.344874    1.778410
H      5.431920    1.800020   -1.679107
H      4.609765   -1.613875    1.700399
H      3.342611    0.508920   -1.726851
H     -3.020797   -1.338762    1.224340
H     -3.478103    0.185747    1.978184
H      2.079517   -1.375686   -0.981004
H      2.838178   -2.520907    0.231342
H      2.286681    0.941974    0.921334
H      0.855350    0.558045    1.911916
H     -1.326465    0.055098   -1.110656
H     -1.086167   -0.041181    1.956296
H      1.054243    0.359994   -1.139450
H     -3.438542   -0.351191   -1.090028
H     -2.439187    1.958764    1.673199
H      0.901266    2.500302   -0.425519
