42

C      5.220714    1.462662   -0.682941
C      3.921381   -2.093931   -0.902359
C     -5.563828   -0.092121   -1.432235
C     -4.462150    0.568854   -1.932265
C     -5.455298   -1.100981   -0.497885
C     -3.208303    0.223973   -1.496528
C     -4.171705   -1.406623   -0.095193
C      2.024701    0.511676   -0.038964
C     -1.740110   -1.221134   -0.029781
C     -1.765812    0.052403    1.940376
C     -3.049731   -0.769538   -0.571362
C     -0.726825    1.083310    1.595444
C      1.799228    0.413579    1.416559
C      3.458982    0.102088   -0.375497
C      0.618559    0.699683    2.152532
O     -0.758555    1.366847    0.265248
O      4.365580    0.940281    0.279041
O      3.601749   -1.203440    0.121205
O     -1.639449   -1.140046    1.316304
O      1.635852    1.772390    1.997122
H      5.730176    0.612527   -1.161648
H      4.574341    2.013385   -1.410064
H      5.932880    2.141397   -0.195059
H      3.114735   -2.082127   -1.652386
H      4.001307   -3.098527   -0.431621
H      4.898507   -1.792289   -1.366437
H     -6.557770    0.193174   -1.788541
H     -4.610729    1.371333   -2.681434
H     -6.327196   -1.630421   -0.096395
H     -2.336826    0.734869   -1.883097
H     -4.083790   -2.208590    0.647689
H      1.391420   -0.141672   -0.669577
H      1.906367    1.537261   -0.471378
H     -1.623569   -2.326467   -0.285005
H     -0.912085   -0.749482   -0.590837
H     -2.760190    0.517081    1.733915
H     -1.772232   -0.077252    3.066946
H     -1.003205    2.033707    2.162077
H      2.640281   -0.075094    1.989623
H      3.640771    0.065058   -1.451489
H      0.580948    0.462008    3.232497
H     -0.529119    2.330192    0.093875
