47

C     -1.715908   -2.956465    1.194750
C      5.729082    1.540150    0.751559
C      4.145723    0.213120   -2.429009
C     -4.465007    2.343549   -1.659433
C     -3.775186    2.805126   -0.542069
C     -4.868898    1.025958   -1.703231
C     -3.525388    1.928363    0.470746
C     -4.598537    0.161053   -0.655772
C      0.507524   -0.966353    0.730575
C      2.931417   -0.345483    0.688980
C     -3.589291   -0.239671    1.620311
C     -1.928214   -1.557380    0.642830
C     -3.922549    0.592904    0.450662
C      1.676901   -0.456795   -0.108861
C     -0.737194   -1.061246   -0.122296
C      4.084351    0.159980   -0.126367
O      1.940394   -1.376465   -1.151711
O     -1.063785    0.173197   -0.675428
O      5.257212    0.258619    0.620655
O      4.273019   -0.560787   -1.276544
O     -2.321167   -0.735326    1.659957
H     -1.064295   -2.946742    2.092239
H     -2.720897   -3.291056    1.561743
H     -1.415490   -3.672854    0.425185
H      5.015004    2.227405    1.251594
H      6.644528    1.509087    1.371124
H      6.038091    1.974140   -0.234235
H      4.926771    1.015186   -2.370271
H      3.137762    0.670260   -2.505360
H      4.320527   -0.445143   -3.294893
H     -4.648335    3.053184   -2.441477
H     -3.435471    3.821769   -0.451676
H     -5.406634    0.658047   -2.569531
H     -2.984984    2.292113    1.344817
H     -4.923800   -0.879235   -0.693317
H      0.319089   -0.189264    1.500114
H      0.746845   -1.894043    1.247647
H      2.778376    0.288908    1.592262
H      3.234629   -1.368792    1.059586
H     -4.304399   -1.115292    1.644626
H     -3.796473    0.354384    2.546614
H     -2.771174   -1.659769   -0.069975
H      1.448625    0.501003   -0.587882
H     -0.488812   -1.729674   -0.971572
H      3.850246    1.220783   -0.423093
H      2.247897   -2.206084   -0.676963
H     -0.782125    0.865626   -0.013526
