40

C      5.286814   -1.522698    0.769150
C      5.300470    0.251344   -2.499002
C     -6.475457   -1.921659   -0.368717
C     -6.349249   -0.604852   -0.752789
C     -5.572060   -2.420484    0.546492
C     -5.364453    0.195331   -0.251338
C     -4.574469   -1.604095    1.052313
C      2.718756    0.360980   -0.345227
C     -3.370453    0.550315    1.231160
C     -1.263263    1.310724    1.052242
C     -4.446919   -0.299044    0.673669
C      0.010366    1.287526    0.264328
C      2.567540    1.626284    0.423008
C      4.159114   -0.024887   -0.581348
C      1.156622    2.088728    0.712853
O      0.044864    0.588894   -0.739926
O      4.851326   -0.211776    0.611702
O      4.849928    0.876038   -1.340321
O     -2.202635    0.486734    0.449092
O      1.992688    2.732709   -0.198536
H      5.821368   -1.581220    1.733092
H      6.020202   -1.825025   -0.014910
H      4.465549   -2.258875    0.778620
H      5.868049    1.006821   -3.114162
H      4.442950   -0.149704   -3.104897
H      5.975275   -0.589793   -2.318611
H     -7.271379   -2.524529   -0.790184
H     -7.068207   -0.223193   -1.475491
H     -5.634605   -3.449051    0.875656
H     -5.265733    1.230960   -0.553834
H     -3.876785   -2.010143    1.766804
H      2.261864    0.448624   -1.362845
H      2.217556   -0.473820    0.168761
H     -3.751227    1.606606    1.233463
H     -3.114296    0.279406    2.265248
H     -1.685006    2.334003    1.060031
H     -1.122130    0.979665    2.080771
H      3.267217    1.776058    1.259388
H      4.145617   -1.006092   -1.094062
H      0.984192    2.683193    1.641859
