42

C     -5.761495   -0.107742   -2.097017
C     -4.946056    0.750367    1.602515
C      7.073319   -0.096318    0.732880
C      6.234555    0.891696    1.191680
C      6.547565   -1.046113   -0.141982
C      4.919271    0.933584    0.794370
C      5.237333   -0.991070   -0.527903
C     -3.189674   -1.316850   -0.388678
C      2.968247    0.011882   -0.523805
C      1.044782    1.289042   -0.217314
C      4.404046    0.001733   -0.063771
C      0.256268    0.077186    0.211907
C     -1.869115   -0.818225   -0.832158
C     -4.302653   -0.336840   -0.324813
C     -1.228533    0.267455   -0.000167
O      0.411349   -0.125648    1.604268
O     -4.494926    0.192821   -1.600147
O     -4.031861    0.685477    0.553014
O      2.380932    1.088585    0.082581
O     -1.707398    0.488391   -1.283515
H     -5.939436   -1.196832   -2.175156
H     -6.546226    0.326670   -1.473772
H     -5.808626    0.296181   -3.127281
H     -5.970116    0.914094    1.194335
H     -4.679319    1.608747    2.241933
H     -4.865791   -0.178479    2.179861
H      8.127680   -0.161187    1.028200
H      6.615598    1.637970    1.868643
H      7.185392   -1.841946   -0.523843
H      4.222778    1.711624    1.143942
H      4.811089   -1.727418   -1.212234
H     -3.037707   -1.793215    0.625963
H     -3.471428   -2.200939   -1.034846
H      2.581730   -0.988138   -0.175501
H      2.900598    0.021838   -1.625633
H      0.939002    1.381614   -1.332315
H      0.665975    2.201968    0.252840
H      0.575700   -0.832108   -0.287118
H     -1.208971   -1.532639   -1.370158
H     -5.218746   -0.891617    0.019480
H     -1.755760    0.747962    0.818934
H     -0.069372    0.656436    2.017278
