47

C     -0.085123   -1.714773    0.783951
C     -5.961539   -0.209706   -0.713843
C     -3.655217    0.804786    2.074668
C      6.933471   -0.591362    0.760792
C      6.693301   -1.169739   -0.473822
C      5.867156   -0.189123    1.541358
C      5.402996   -1.341447   -0.917507
C      4.581047   -0.375544    1.066921
C     -1.377422    0.421481   -0.654009
C     -3.367880    1.909920   -1.062807
C      2.949982   -1.159682   -0.689566
C      0.725706   -0.845132   -0.167327
C      4.318575   -0.946870   -0.154239
C     -1.934714    1.809357   -0.609151
C      0.068760    0.522636   -0.158737
C     -4.225532    1.090014   -0.169743
O     -1.122109    2.711369   -1.331113
O      0.710711    1.418304   -1.011926
O     -5.576120    1.114800   -0.540761
O     -4.125824    1.657454    1.117137
O      2.030064   -0.688663    0.245152
H     -0.458598   -1.087305    1.623693
H     -0.955699   -2.116516    0.219339
H      0.488447   -2.570321    1.158171
H     -7.017050   -0.314644   -1.010071
H     -5.720062   -0.787615    0.210904
H     -5.295615   -0.626775   -1.515425
H     -4.318869   -0.094351    2.161172
H     -3.756795    1.352022    3.058924
H     -2.614972    0.489153    1.995619
H      7.951307   -0.461569    1.098873
H      7.516290   -1.500311   -1.118724
H      6.070785    0.262568    2.506606
H      5.248682   -1.797454   -1.888706
H      3.744361   -0.063955    1.670882
H     -1.908629   -0.335520   -0.080698
H     -1.343287    0.034664   -1.711449
H     -3.414148    1.579512   -2.138732
H     -3.645279    2.984099   -1.091947
H      2.826272   -0.512336   -1.594044
H      2.752036   -2.210656   -0.957941
H      0.660372   -1.311044   -1.153657
H     -1.822745    2.154780    0.461211
H      0.008721    0.922545    0.871427
H     -3.878774    0.065124   -0.125931
H     -1.343931    3.646146   -1.035064
H      1.376895    1.977889   -0.549861
