45

C      1.572679    0.734530   -0.707667
C     -4.937404    2.515876   -0.893536
C     -5.799692   -1.450720   -1.020945
C      5.586443    1.457468    1.976813
C      5.842572    1.092746    0.683202
C      4.684899    0.747223    2.710740
C      5.207247    0.023848    0.111460
C      4.038684   -0.336866    2.135437
C     -3.307807    0.048056    0.579504
C      3.584972   -1.886865    0.236087
C      1.631420   -0.652505   -0.108058
C      4.289987   -0.710733    0.835032
C     -2.026450   -0.142318   -0.182994
C     -4.427399    0.308865   -0.429409
C      0.247652   -1.283397   -0.221386
C     -0.758426   -0.411744    0.499012
O     -0.112356   -1.551340   -1.517904
O     -4.102707    1.440964   -1.132988
O     -4.567064   -0.828126   -1.183625
O      2.618855   -1.435481   -0.607212
O     -1.022103    0.857988   -0.020264
H      1.235758    1.463118    0.043177
H      0.791312    0.702632   -1.500375
H      2.511475    1.028433   -1.200993
H     -5.983960    2.311455   -1.150420
H     -4.856519    2.876459    0.173675
H     -4.550374    3.370658   -1.500644
H     -5.800569   -2.351657   -1.673184
H     -6.644841   -0.821513   -1.363593
H     -6.006112   -1.771144   -0.000510
H      6.117888    2.316447    2.387538
H      6.567559    1.660005    0.085767
H      4.496851    1.057392    3.741721
H      5.391242   -0.289928   -0.917016
H      3.330021   -0.873052    2.765810
H     -3.522112   -0.853933    1.197028
H     -3.179016    0.928891    1.256126
H      4.291123   -2.604806   -0.205033
H      3.092990   -2.422462    1.073370
H      1.801807   -0.511693    0.978715
H     -2.133922   -0.444890   -1.226228
H     -5.325972    0.546797    0.190354
H      0.310767   -2.233758    0.374166
H     -0.689277   -0.416775    1.604640
H      0.509880   -1.204145   -2.197743
