45

C     -0.433479   -2.912210    0.125037
C      5.303622    0.210132   -0.391883
C      3.085182    2.986224    0.918165
C     -6.279084    0.548720    1.796048
C     -5.378647    1.388285    2.438527
C     -5.842143   -0.483336    0.999023
C     -4.003405    1.178675    2.269877
C     -4.480506   -0.655698    0.858984
C      0.915892   -1.355215   -2.066685
C      2.090449    0.709357   -1.352947
C     -2.061990   -0.087360    1.287329
C     -0.715673   -1.465908   -0.042398
C     -3.542012    0.155239    1.479292
C      2.150105   -0.799522   -1.364671
C     -0.346064   -0.965488   -1.426053
C      3.293938    1.281213   -0.653172
O      3.299515   -1.173350   -2.102073
O     -1.133098   -0.234673   -1.970179
O      4.499086    0.930397   -1.244804
O      3.160011    2.651995   -0.429588
O     -1.955757   -1.043281    0.327453
H     -0.113189   -3.433379   -0.802478
H     -1.335330   -3.393840    0.559630
H      0.395226   -3.050436    0.847111
H      6.246714   -0.060512   -0.942715
H      4.860934   -0.688057    0.052964
H      5.594281    0.881533    0.468303
H      3.958596    2.705105    1.511053
H      2.182011    2.538067    1.404283
H      2.965073    4.085169    0.979417
H     -7.362626    0.656692    1.883628
H     -5.783273    2.178708    3.052336
H     -6.539422   -1.138719    0.498132
H     -3.312410    1.846828    2.782342
H     -4.085662   -1.456936    0.241284
H      1.044201   -2.445114   -2.149312
H      0.958002   -0.934149   -3.098614
H      1.161607    0.974346   -0.796243
H      1.951845    1.088887   -2.380400
H     -1.668298   -0.350503    2.292176
H     -1.639062    0.899781    1.013666
H      0.006314   -0.886846    0.616393
H      2.240228   -1.145323   -0.317198
H      3.305917    0.835211    0.381062
H      3.342380   -0.570710   -2.904104
