47

C      1.331942    0.276826    1.946673
C      4.580838   -1.322268    2.225477
C      5.952829    1.602391    0.811107
C     -7.334975   -0.230529   -1.281281
C     -6.830147   -1.454677   -0.861066
C     -6.457619    0.803036   -1.505535
C     -5.481239   -1.662111   -0.663346
C     -5.123030    0.577369   -1.303745
C      3.156207    0.473997   -0.512486
C     -3.131617   -0.765781   -0.698697
C     -1.164917    0.492981   -0.892954
C      0.847341    0.598332    0.543882
C     -4.601305   -0.625521   -0.888256
C      1.748633    0.039648   -0.473060
C     -0.611401    0.224763    0.435316
C      4.087059    0.244894    0.589307
O      1.225736    0.293757   -1.801252
O     -0.769369   -1.070985    0.921486
O      4.285138   -1.073603    0.918076
O      5.426952    0.599007    0.043104
O     -2.545403    0.420352   -0.998815
H      1.989215    1.066445    2.285345
H      0.443318    0.318620    2.660391
H      1.806137   -0.701026    2.001237
H      3.845496   -0.990836    2.956091
H      5.599520   -0.936567    2.491907
H      4.670008   -2.453463    2.311685
H      6.071956    1.308743    1.872050
H      5.242977    2.478658    0.805545
H      6.924021    1.946026    0.433655
H     -8.378889   -0.070267   -1.434210
H     -7.547019   -2.263855   -0.688509
H     -6.781954    1.783891   -1.834209
H     -5.088955   -2.605096   -0.339305
H     -4.430438    1.407095   -1.484941
H      3.643105    0.149661   -1.510472
H      3.136556    1.620606   -0.698661
H     -2.775101   -1.530292   -1.440321
H     -3.006987   -1.127693    0.340453
H     -0.768938   -0.312500   -1.588603
H     -0.830432    1.450132   -1.288567
H      0.950676    1.733016    0.471349
H      1.715989   -1.102610   -0.430737
H     -1.114817    0.904008    1.225913
H      4.050087    0.926040    1.427857
H      1.957319    0.103997   -2.447097
H      0.085496   -1.544611    0.751908
