44

C      5.687864    2.629811    0.368224
C      3.501889    1.251413   -2.215145
C     -6.925363   -1.202805    0.003615
C     -6.303685   -1.828338   -1.070325
C     -6.142151   -0.457161    0.856196
C     -4.957695   -1.719309   -1.291095
C     -4.771596   -0.330383    0.654060
C      1.481625   -0.803557    0.118637
C      3.408906    0.402805    1.205776
C     -2.707385   -0.855224   -0.679578
C     -0.840932    0.170468    0.196069
C     -4.189136   -0.957934   -0.411777
C      1.971449    0.070592    1.196065
C     -0.005539   -1.066516    0.254895
C      3.983959    1.117088    0.046541
O      1.551786   -0.459321    2.417790
O     -0.255497   -1.668007    1.497394
O      5.363533    1.290255    0.348320
O      3.961449    0.467345   -1.161646
O     -2.193629   -0.064762    0.312102
H      5.059290    3.104855    1.151551
H      6.742910    2.795365    0.629980
H      5.496383    3.102929   -0.593638
H      4.168546    2.125079   -2.316718
H      3.603203    0.670216   -3.153808
H      2.436582    1.529514   -2.119909
H     -7.992845   -1.331774    0.117613
H     -6.912972   -2.416422   -1.745110
H     -6.599553    0.041709    1.701918
H     -4.450453   -2.198483   -2.122466
H     -4.155120    0.262043    1.333076
H      1.958512   -1.820598    0.166270
H      1.631930   -0.456073   -0.917646
H      4.017021   -0.542534    1.339195
H      3.682070    0.999494    2.124484
H     -2.562113   -0.428374   -1.684699
H     -2.268368   -1.880612   -0.660082
H     -0.687071    0.670573   -0.805746
H     -0.526683    0.902305    1.003540
H      1.418648    1.059508    1.118690
H     -0.339729   -1.796469   -0.526184
H      3.595825    2.148510   -0.092300
H      2.156182   -1.175176    2.696181
H     -1.092049   -1.352045    1.896894
