47

C     -1.558446   -2.272562    2.586510
C      3.857818    3.164964    0.704989
C      4.917034    0.351807   -1.749668
C     -4.179433    1.853198   -1.921472
C     -4.647141    1.431877   -0.694909
C     -3.372885    0.978425   -2.616149
C     -4.330046    0.180139   -0.162716
C     -3.042369   -0.246740   -2.131617
C      0.699149   -1.338768    0.895006
C      1.979322    0.462790   -0.283022
C     -3.138097   -2.000266   -0.419163
C     -1.750417   -1.367852    1.360099
C     -3.519879   -0.655114   -0.898253
C      1.966075   -0.569217    0.780757
C     -0.485224   -0.503644    1.193098
C      3.341282    1.174142   -0.340725
O      3.082968   -1.432305    0.685985
O     -0.738967    0.330500    0.071075
O      3.625710    1.796481    0.860590
O      4.283082    0.173541   -0.538566
O     -1.947899   -2.078209    0.226964
H     -1.164985   -1.603969    3.385068
H     -2.556030   -2.606708    2.938441
H     -0.926304   -3.131732    2.368327
H      2.970918    3.667566    0.274855
H      4.144012    3.566390    1.685939
H      4.721729    3.261343    0.013584
H      4.220510    0.325007   -2.621276
H      5.327120    1.396191   -1.745714
H      5.737893   -0.377025   -1.904531
H     -4.439549    2.816657   -2.301833
H     -5.285417    2.080103   -0.106108
H     -2.995964    1.301400   -3.590255
H     -4.700795   -0.144904    0.785278
H     -2.402005   -0.879454   -2.738032
H      0.866129   -2.153690    1.646528
H      0.529697   -1.942065   -0.058463
H      1.212830    1.244555   -0.043032
H      1.768604    0.033043   -1.257416
H     -3.983001   -2.480223    0.135659
H     -3.035548   -2.646552   -1.346841
H     -2.585695   -0.712357    1.643496
H      2.186227   -0.005255    1.751728
H     -0.369733    0.179000    2.049853
H      3.345570    1.854777   -1.208694
H      2.917582   -2.295292    1.099081
H     -0.545433   -0.179992   -0.766375
