27

C      3.526340    0.720995    0.047786
C     -2.767828   -1.127245    0.277178
C     -1.398499   -1.271137    0.065084
C     -3.386005    0.094175    0.111722
C     -1.267659    1.067419   -0.486856
C      1.526190   -0.374682    0.794275
C     -0.657362   -0.173649   -0.315308
C     -2.620522    1.176542   -0.269761
C      0.796749   -0.329559   -0.541376
N      2.947411   -0.466153    0.607699
O     -3.233425    2.427092   -0.442992
O      1.053915   -1.461403   -1.276373
Cl     0.683665    0.000000    0.000000
H      4.571311    0.794729    0.469760
H      3.690823    0.632361   -1.060667
H      2.933279    1.629286    0.262440
H     -3.334715   -1.991462    0.573520
H     -0.937933   -2.243578    0.202600
H     -4.443009    0.240960    0.268361
H     -0.656070    1.900699   -0.784981
H      1.263546    0.501820    1.422642
H      1.180481   -1.295738    1.309800
H      1.163779    0.573854   -1.068047
H      3.214817   -1.311744    0.101788
H     -4.227178    2.549407   -0.293254
H      1.061564   -2.262992   -0.693590
H     -0.683665    0.000000    0.000000
