22

C     -1.177549    0.996477   -0.648414
C      0.140278    1.439621   -0.080444
C     -1.010053   -1.237108    0.281262
C     -1.813313    0.008324    0.331413
C      1.040991    0.196131   -0.156508
C      0.396248   -0.952706    0.023970
C      3.019733   -0.912181   -0.424392
N     -3.171640   -0.241462   -0.121758
N      4.250071   -1.210556   -0.615056
N      2.336272    0.200445   -0.376859
S      1.721014   -2.149509   -0.127366
H     -1.005248    0.501929   -1.615185
H     -1.860435    1.840203   -0.810537
H      0.523542    2.232844   -0.752328
H      0.064054    1.792307    0.949323
H     -1.177645   -1.856057    1.197098
H     -1.399213   -1.874467   -0.565870
H     -1.823134    0.471802    1.340613
H     -3.805346    0.522618    0.204701
H     -3.152751   -0.349568   -1.155861
H      5.007206   -0.552630   -0.784273
H      2.896916    1.133544   -0.529039
