72

C      2.988872   -1.191193   -2.221800
C      6.644127    1.292301    1.046801
C     -4.099734    1.954674   -0.034206
C      0.467665    1.049560    0.920563
C      3.982028    0.899403   -0.130741
C      2.982370    1.059142   -1.213453
C      5.077666   -0.084847   -0.343354
C     -4.116454   -0.880163    2.055810
C     -2.862364   -1.534327    1.515283
C      1.449406   -1.473150    0.325460
C      0.164479   -1.542320    1.173905
C     -6.548599    0.663871   -1.187224
C     -2.140735    0.431905   -1.583363
C     -5.141817    0.240913   -1.420125
C     -0.825427    0.989531   -1.224894
C     -6.130526    0.123374    1.227863
C      2.158177   -0.057313   -1.668248
C      6.038409   -0.091027    0.869416
C     -4.843667   -0.092644    1.017714
C     -6.873382    0.887023    0.237794
C     -2.110112   -0.461353    0.764978
C      1.086398   -0.618713   -0.863011
C     -0.815075   -0.904638    0.291167
C     -2.932363   -0.209732   -0.514409
C      7.137371   -1.034691    0.661222
C     -4.240133    0.450457   -0.196448
C      0.021092    0.257901   -0.286432
O     -7.760669    1.705948    0.606661
O      8.356010   -0.697687    0.642681
O      6.874417   -2.390163    0.468352
H      2.447802   -1.550669   -3.158653
H      3.978529   -0.901009   -2.573415
H      2.963411   -2.092468   -1.575536
H      5.939641    1.895018    1.647387
H      6.682676    1.747537    0.040902
H      7.662585    1.238472    1.488860
H     -4.390187    2.502855   -0.955742
H     -4.796164    2.327007    0.772388
H     -3.082969    2.226266    0.320292
H      0.737698    2.106840    0.667705
H     -0.355472    1.179996    1.684577
H      1.262947    0.527938    1.490564
H      3.545303    0.846660    0.896314
H      4.520955    1.913544   -0.080113
H      3.622672    1.389360   -2.110879
H      2.386703    2.017703   -1.056543
H      5.688368    0.081503   -1.224068
H      4.677930   -1.133840   -0.336906
H     -4.754763   -1.641419    2.518357
H     -3.775557   -0.187033    2.868458
H     -2.232279   -1.816844    2.383598
H     -3.100552   -2.406002    0.862279
H      1.675362   -2.530092   -0.010987
H      2.300331   -1.158230    0.906976
H     -0.130652   -2.621740    1.319600
H      0.301206   -1.130521    2.169617
H     -6.764322    1.564319   -1.803458
H     -7.289374   -0.105119   -1.558790
H     -1.993481   -0.244024   -2.478047
H     -2.766091    1.274746   -2.006107
H     -5.168876   -0.859102   -1.679345
H     -4.732260    0.736723   -2.304314
H     -0.247768    1.151857   -2.182975
H     -0.978642    2.038458   -0.834880
H     -6.629782   -0.262884    2.133414
H      1.626527    0.357656   -2.612661
H      5.446842   -0.394922    1.754523
H     -2.205575    0.453876    1.339810
H      0.504272   -1.340561   -1.527535
H     -0.956250   -1.590948   -0.599138
H     -3.193487   -1.254388   -0.862860
H      7.585317   -3.098560    0.552110
