47

C      6.162337    2.406322   -0.811523
C      3.694252    1.523641    0.411575
C      1.787669   -1.894817    1.277192
C      6.092460    1.080512   -1.423124
C      5.155167    0.229039   -1.244588
C      3.100311   -0.636300   -0.398283
C     -3.043955   -1.201484   -0.793685
C     -5.242018   -0.634531    0.082466
C     -3.256366    0.114874    1.361896
C     -0.673094   -0.887285   -0.007921
C      3.985494    0.361636   -0.423261
C      1.884579   -0.620068    0.396578
C     -3.760200   -0.141133   -0.037069
C     -1.633151   -1.046609   -1.144304
C      0.733062   -0.786476   -0.554415
C     -6.047702    0.465049    0.666002
C     -4.424851    0.279335    2.297814
N     -5.586550    0.906969    1.814061
O     -1.418846   -0.024778   -2.096768
O      0.928446   -0.837879   -1.722209
O     -7.171565    0.993644    0.089198
O     -4.334307   -0.138882    3.463986
H      6.876688    2.999748   -1.508713
H      6.640481    2.416767    0.186209
H      5.249036    2.991813   -0.887949
H      3.107322    1.162490    1.333955
H      4.607132    1.916275    0.956342
H      3.188647    2.361600   -0.051683
H      0.896607   -1.736083    1.916031
H      2.685297   -2.007646    1.890587
H      1.582273   -2.734439    0.599964
H      6.947972    0.786638   -2.110477
H      5.280340   -0.728748   -1.803542
H      3.355039   -1.505548   -1.040467
H     -3.151801   -2.147242   -0.150329
H     -3.671656   -1.482344   -1.708577
H     -5.216122   -1.537820    0.710100
H     -5.622402   -0.882662   -0.916811
H     -2.644504   -0.684488    1.773325
H     -2.717078    1.095376    1.392659
H     -0.874382    0.067512    0.559732
H     -0.766269   -1.723075    0.701047
H      1.660432    0.252038    0.998146
H     -3.830096    0.818288   -0.566829
H     -1.339534   -1.985240   -1.729102
H     -1.698232    0.853414   -1.730479
H     -7.476366    1.922601    0.348800
