80

C      7.742305    2.564809   -0.545854
C      1.361531    0.189772    1.289998
C     -5.001972    3.288984   -1.823735
C      8.288312    1.224988   -0.093256
C      7.366705    0.682515    0.957135
C      7.831509   -0.640517    1.442946
C      7.896007   -1.676883    0.341403
C      6.553189   -1.845855   -0.315518
C      5.529726   -2.265736    0.752713
C     -5.444853   -2.840581    1.760672
C     -6.471210   -2.374649    0.794912
C      4.240193   -2.363549    0.013170
C     -4.157572   -2.976112    1.881838
C     -6.573444   -1.367066   -0.023047
C      3.251369   -1.565328    0.378456
C     -2.937165   -2.710126    1.034974
C     -7.550294   -0.842791   -0.996466
C      1.944534   -1.550796   -0.251575
C     -2.630427   -2.940187   -0.198141
C     -7.116607    0.558953   -1.516189
C     -0.396339    0.734280   -1.161561
C     -2.727238    1.597497    0.301022
C      1.010890   -0.727809    0.150842
C     -4.912485    2.294184   -0.683200
C     -3.819712    2.672231    0.302028
C     -0.335543   -0.591277   -0.436925
C     -0.399255    1.920132   -0.312949
C     -1.460512   -2.705604   -1.077240
C     -6.237508    2.255987   -0.047601
N     -7.152735    1.494445   -0.440426
N     -1.455357    2.271408    0.321511
O     -4.279150    2.775568    1.596421
O      0.792726    2.677394   -0.208064
O     -1.004440   -3.706625   -1.801644
O     -6.419427    3.137772    1.042447
O     -0.706843   -1.599333   -1.313832
H      8.529043    3.323795   -0.520936
H      7.353744    2.418090   -1.589894
H      6.892281    2.835339    0.105050
H      1.689435   -0.467200    2.156095
H      0.506301    0.743844    1.672787
H      2.265929    0.783217    1.059721
H     -4.220544    3.093211   -2.579758
H     -4.894581    4.316816   -1.435266
H     -6.026839    3.171921   -2.263224
H      8.415970    0.542124   -0.938942
H      9.294221    1.416500    0.359537
H      7.334686    1.423912    1.784594
H      6.340337    0.598967    0.516253
H      8.878801   -0.585502    1.854278
H      7.219079   -0.980238    2.305177
H      8.640332   -1.395428   -0.409139
H      8.153269   -2.667646    0.799267
H      6.655502   -2.702913   -1.030099
H      6.217552   -0.928582   -0.805672
H      5.832781   -3.251190    1.193753
H      5.436863   -1.500390    1.542095
H     -6.093161   -3.192174    2.699501
H     -7.312985   -3.179547    0.852791
H      4.137094   -3.060911   -0.783842
H     -3.727907   -3.398210    2.896718
H     -5.719004   -0.575290   -0.146728
H      3.428607   -0.878392    1.200382
H     -2.205970   -2.184971    1.778985
H     -8.515310   -0.575850   -0.468108
H     -7.795556   -1.377328   -1.889327
H      1.709829   -2.216328   -1.066518
H     -3.339452   -3.462095   -0.973541
H     -7.869047    0.882175   -2.261389
H     -6.162599    0.498287   -2.042188
H      0.486570    0.728531   -1.868230
H     -1.280791    0.725210   -1.862200
H     -2.844869    0.919312    1.167404
H     -2.877687    1.000851   -0.634320
H     -4.653919    1.326583   -1.101559
H     -3.349520    3.606978   -0.060399
H     -1.121003   -0.531284    0.358978
H     -3.532117    3.158345    2.133622
H      0.793087    3.411223    0.508969
H     -7.287356    3.136143    1.534507
