67

C     -1.700677   -0.707102   -1.070655
C      7.626643    0.156691   -0.670736
C      6.639892   -1.044667    1.071407
C     -5.499959   -2.143235   -0.355000
C     -4.258219   -1.778552    0.106811
C      4.226529    2.341349   -1.192814
C      5.406720    1.843322   -0.856935
C     -2.032639   -1.049817    2.048183
C     -0.532995   -0.923936    1.850325
C     -0.549239    2.040751   -1.054594
C     -7.827198   -1.613694   -0.767781
C     -1.839358    1.628600   -0.472544
C      2.818158   -0.755252   -0.469001
C      1.293098   -0.827546   -0.632947
C     -8.862215   -0.714417   -0.702851
C     -5.083697    0.351117    0.686059
C      1.815673    1.995099   -1.451563
C      4.295393    0.607550    0.909553
C     -7.406131    0.859039    0.266941
C     -6.547363   -1.271582   -0.304201
C     -4.007009   -0.536614    0.636673
C     -6.334430   -0.013578    0.221691
C      2.977882    1.684310   -0.868322
C      0.601941    1.502727   -0.817791
C      5.401774    0.546845   -0.112748
C     -2.712888   -0.081701    1.142880
C     -0.420780    0.223582    0.899559
C     -1.685041    0.224610    0.078723
C      2.977963    0.628051    0.148062
C      0.820087    0.338763    0.119548
N     -8.635714    0.501515   -0.189027
N      6.703020    0.274000    0.469147
O      1.872763    0.706832    0.992085
H     -2.755657   -0.716616   -1.475534
H     -1.137566   -0.210375   -1.911273
H     -1.390727   -1.729552   -0.881435
H      8.304373   -0.732843   -0.526242
H      7.070689   -0.071829   -1.611805
H      8.171683    1.089666   -0.833575
H      5.672560   -1.554470    0.889504
H      7.410870   -1.744961    0.640249
H      6.891802   -1.002280    2.156855
H     -5.682273   -3.135970   -0.773317
H     -3.464408   -2.482619    0.052196
H      4.142476    3.292015   -1.742485
H      6.332943    2.346243   -1.107647
H     -2.337710   -0.859693    3.103956
H     -2.284924   -2.109671    1.842156
H     -0.108831   -0.648096    2.855306
H     -0.046349   -1.843275    1.540643
H     -0.581788    2.887170   -1.756103
H     -7.977041   -2.603047   -1.176631
H     -2.576366    1.543869   -1.310611
H     -2.242078    2.317042    0.280977
H      3.354546   -0.763514   -1.415181
H      3.168057   -1.511491    0.259351
H      1.138074   -0.832878   -1.724599
H      0.996711   -1.810795   -0.258570
H     -9.842686   -0.960776   -1.052101
H     -4.984717    1.351385    1.085517
H      1.824124    2.578849   -2.334699
H      4.259782   -0.260199    1.583642
H      4.424501    1.539731    1.496239
H     -7.223833    1.835363    0.680147
H      5.246663   -0.240664   -0.877880
H     -2.823551    0.896875    1.702896
H     -0.491334    1.154346    1.545073
