72

C      2.735438   -2.113196   -2.081222
C      6.501273    2.519891    0.944366
C     -3.205976    1.741103   -1.124574
C     -0.446062   -1.302192   -1.936430
C      4.762170   -0.550700   -0.648441
C      3.300907   -0.322759   -0.422948
C      5.571251    0.682831   -0.439238
C     -4.718742   -1.240114   -0.002691
C     -3.497422   -1.912794    0.530833
C      0.747496   -3.190894   -0.017497
C     -0.752501   -3.102227    0.272570
C     -4.962028    2.968398    0.995402
C     -1.041708    0.854231    0.740644
C     -3.705889    2.200093    1.214086
C     -0.028205    0.427352   -0.249515
C     -5.895762    0.820084    0.077094
C      2.549296   -1.630769   -0.674796
C      5.546550    1.309999    0.913522
C     -4.713681    0.232565    0.091817
C     -5.966310    2.266813    0.166692
C     -2.311383   -1.136713    0.007047
C      1.230477   -1.750517   -0.082793
C     -0.996932   -1.668042    0.382581
C     -2.381793    0.235284    0.702626
C      4.234766    1.933907    1.292969
C     -3.503900    1.082605    0.197751
C      0.048851   -1.034662   -0.569455
O     -6.837830    2.948241   -0.424675
O      3.617191    2.583996    0.423309
O      3.700804    1.813870    2.564479
H      2.628697   -1.319127   -2.843171
H      2.069281   -2.973729   -2.258535
H      3.764610   -2.515372   -2.246271
H      6.119688    3.214770    0.169279
H      6.325297    3.009189    1.924489
H      7.538019    2.192904    0.784829
H     -3.030895    1.025832   -1.946254
H     -4.071448    2.369081   -1.398491
H     -2.336867    2.401024   -1.039363
H      0.266230   -1.501801   -2.723298
H     -1.191956   -2.144763   -1.986829
H     -1.022040   -0.392653   -2.289073
H      4.962222   -0.986031   -1.662964
H      5.146185   -1.287742    0.136663
H      3.159264   -0.067224    0.638396
H      2.935923    0.484323   -1.051273
H      6.676582    0.479169   -0.646830
H      5.311771    1.457537   -1.215019
H     -4.918141   -1.529489   -1.068660
H     -5.595653   -1.639191    0.564241
H     -3.517165   -1.983825    1.621085
H     -3.435781   -2.924094    0.066607
H      1.266895   -3.709901    0.829904
H      0.832831   -3.747906   -0.944317
H     -0.935833   -3.587930    1.255888
H     -1.359486   -3.647351   -0.475150
H     -5.469975    3.163804    1.981867
H     -4.737694    3.977053    0.584605
H     -0.573617    0.791447    1.768692
H     -1.169809    1.969517    0.602080
H     -3.714077    1.788385    2.255477
H     -2.858532    2.911829    1.188512
H     -0.216912    0.988554   -1.200214
H      0.944601    0.854874    0.129144
H     -6.830272    0.240288   -0.004418
H      3.214138   -2.359225   -0.085759
H      5.816378    0.600518    1.713117
H     -2.513241   -0.929775   -1.041441
H      1.286154   -1.475185    1.036035
H     -0.670172   -1.319337    1.395907
H     -2.660022   -0.025877    1.770432
H      2.984477    2.481748    2.866570
