45

C      6.486917   -0.200119   -1.318815
C     -5.205336    0.035390   -1.368781
C     -4.797556    2.205190   -0.094281
C     -1.562992   -1.468983   -3.093016
C     -0.737387    0.656329   -2.001423
C      6.191017   -0.011530   -0.165475
C      5.848842    0.233579    1.257623
C     -3.018934    0.500431   -0.336048
C      3.531974    1.301425    1.237220
C      1.167238   -1.324561    2.476531
C     -4.274038    0.900624   -0.582571
C     -2.567687   -0.802325   -0.848875
C      2.361074    0.922556    2.085429
C     -1.262481   -1.407090   -0.510531
C     -0.400277   -0.882780    0.584176
C      3.580306   -0.943773    1.675719
C     -1.381414   -0.699591   -1.803681
N      4.412000    0.156214    1.391433
N      2.285770   -0.492438    2.112633
O      1.607634    1.741624    2.653873
O     -0.317192    0.350797    0.770011
O      3.895481   -2.143403    1.572172
O      0.328245   -1.694495    1.423720
H      6.761393   -0.375049   -2.330878
H     -6.188564    0.524980   -1.493694
H     -4.791976   -0.112055   -2.397050
H     -5.392072   -0.930177   -0.859269
H     -4.524995    2.310949    0.974387
H     -5.874174    2.277828   -0.228435
H     -4.283007    2.997928   -0.706071
H     -0.746388   -1.272686   -3.812001
H     -1.652682   -2.549412   -2.853861
H     -2.558180   -1.170301   -3.527941
H     -1.168336    1.064171   -2.959879
H     -0.997465    1.380566   -1.222777
H      0.341683    0.540857   -2.169255
H      6.341052   -0.547104    1.872527
H      6.255871    1.219147    1.549765
H     -2.411403    1.182562    0.237504
H      3.991418    2.192177    1.710373
H      3.270840    1.529622    0.207089
H      0.590471   -0.874770    3.337712
H      1.523991   -2.305631    2.923714
H     -3.415174   -1.489423   -1.153678
H     -1.243506   -2.527251   -0.583950
