58

C      1.071177    3.385116   -1.217988
C     -5.858874   -3.913732    0.472500
C     -6.627572   -1.578365    0.856940
C      0.801761    2.667125    0.079053
C      5.812161   -2.514550   -0.125471
C      4.888276   -1.897262   -1.133141
C     -3.303626   -1.677249   -0.337344
C     -4.439682   -2.053813   -0.187910
C      6.175298   -1.481299    0.915702
C      3.840232   -0.924037    0.916932
C      0.270778   -1.617705   -1.114083
C      3.020938   -0.378616   -1.345969
C      3.573588   -1.472639   -0.479119
C     -1.949311   -1.241119   -0.509166
C      0.582057   -0.304900   -0.795169
C     -1.668948    0.083547   -0.180673
C     -2.247216    3.441886    0.912466
C     -0.392743    0.565668   -0.321269
C     -1.776374    4.697780    1.108955
C     -1.640393    2.221833    0.429222
C     -5.823453   -2.506021   -0.028884
N     -0.512610    5.261230    0.923076
N      5.183430   -0.435946    1.020553
N     -0.987021   -2.041232   -0.959121
N     -2.402635    1.085852    0.268866
N     -3.581814    3.547090    1.250133
N     -2.819568    5.467996    1.542238
N     -0.409764    1.881768    0.064948
O     -6.380658   -2.515858   -1.325531
O      1.837316    0.153312   -0.944245
O     -3.865784    4.739998    1.608799
H      0.129154    3.727471   -1.721009
H      1.622685    4.324863   -0.961731
H      1.725953    2.824792   -1.905768
H     -6.136603   -4.642850   -0.318733
H     -6.617442   -3.979586    1.285067
H     -4.897185   -4.239270    0.891465
H     -5.932124   -0.857484    1.333968
H     -7.106381   -2.156061    1.674113
H     -7.363244   -0.978543    0.278440
H      1.702316    1.951684    0.172774
H      0.943349    3.266811    0.989136
H      6.719191   -2.849308   -0.670020
H      5.304984   -3.394932    0.307363
H      5.366449   -0.967701   -1.500358
H      4.633064   -2.584459   -1.944021
H      7.120749   -1.002159    0.588340
H      6.366998   -1.995406    1.861629
H      3.156612   -0.064786    1.063360
H      3.592947   -1.666400    1.707288
H      1.047607   -2.298716   -1.508299
H      3.041558   -0.723264   -2.414820
H      3.815036    0.435364   -1.332813
H      2.990708   -2.365234   -0.352766
H      0.120721    5.325023    1.775607
H     -0.137602    5.629031    0.042798
H      5.312955    0.317555    0.325678
H     -6.891426   -1.682292   -1.457602
