45

C      3.258722    0.558196    1.040251
C     -3.370190    1.604104   -0.779937
C      4.517919    1.102019    1.176458
C     -4.688548    1.978067   -0.609023
C      3.958197   -0.619873   -0.858381
C     -3.666319   -0.278165    0.645293
C     -0.906475   -2.245788   -0.272117
C      0.430140    1.086573    0.393626
C      2.935905   -0.300476    0.045234
C     -2.856039    0.467266   -0.147528
C     -0.821869   -0.894006    0.406232
C      0.554017   -0.388834    0.657814
C      5.509239    0.776011    0.278053
C     -5.520251    1.233338    0.190558
C      5.228250   -0.100995   -0.760000
C     -4.989656    0.122678    0.798977
C      1.624981   -0.929347   -0.212616
C     -1.447910    0.173075   -0.410214
O     -0.340293   -2.288988   -1.522710
O      6.770682    1.322197    0.416365
O     -6.850036    1.614124    0.360520
O      6.250872   -0.396796   -1.632252
O     -5.783872   -0.660082    1.613016
O      1.806692   -2.292548   -0.211534
O     -0.673041    1.287694   -0.379860
H      2.509056    0.818252    1.760067
H     -2.733676    2.208066   -1.415853
H      4.684462    1.781315    2.004383
H     -5.082002    2.866322   -1.105872
H      3.788313   -1.299136   -1.685999
H     -3.271901   -1.151639    1.127490
H     -0.504934   -3.033029    0.409968
H     -1.984522   -2.477454   -0.390290
H      0.323514    1.652390    1.365574
H      1.332185    1.469692   -0.161507
H     -1.309019   -1.024737    1.409141
H      0.801924   -0.561660    1.758128
H      1.357034   -0.619089   -1.268628
H     -1.425337   -0.208254   -1.485777
H     -0.924063   -2.718107   -2.213647
H      6.954341    1.948012    1.164979
H     -7.235885    2.431659   -0.088879
H      6.206718   -1.002569   -2.419320
H     -6.758578   -0.460841    1.793926
H      2.341252   -2.548636   -0.995818
