37

C     -0.515847   -0.136349    2.288993
C      4.778142    1.658443   -0.078467
C      5.151395    0.586736   -0.860815
C     -4.387645   -0.261948    1.014075
C     -3.198796   -0.881841    0.715033
C     -4.855633    0.761782    0.198117
C      3.579834    1.644095    0.600812
C      4.349968   -0.527572   -0.992361
C     -2.954390    0.517376   -1.174338
C     -2.467471   -0.499759   -0.382650
C     -4.139459    1.160992   -0.907235
C      2.764462    0.528865    0.476725
C      3.147093   -0.556850   -0.318326
C     -1.195765   -1.144734   -0.711910
C      1.524212    0.623458    1.238180
C      1.160339   -1.928029   -0.402608
C      0.058913   -1.021438    0.006693
N      2.427987   -1.764543   -0.543517
N      0.346471   -0.211349    1.125329
O     -4.598222    2.188908   -1.736489
O      1.489222    1.557290    2.101786
O      0.727041   -3.215643   -0.691395
O     -0.232368   -0.162542   -1.201892
H     -0.855025   -1.147866    2.516561
H      0.109133    0.161908    3.177282
H     -1.283451    0.642174    2.220212
H      5.433913    2.539712    0.013029
H      6.118331    0.659671   -1.376442
H     -5.007334   -0.514982    1.859883
H     -2.861918   -1.690932    1.379241
H     -5.782352    1.279998    0.389303
H      3.222829    2.440706    1.227968
H      4.679089   -1.362584   -1.623872
H     -2.380079    0.832406   -2.054610
H     -1.293934   -1.996308   -1.427325
H     -4.352770    3.156581   -1.572869
H      1.294087   -3.915832   -1.143264
