41

C      2.783207   -0.408827   -1.163552
C     -3.119673   -0.764841    1.008753
C      3.867106   -1.225401   -1.464691
C     -4.221933   -1.586105    0.904203
C      4.050633    0.561039    0.579954
C     -3.821245    0.446544   -0.885369
C     -0.122764    1.568947    1.801083
C      2.850653    0.502888   -0.134288
C     -2.891468    0.271440    0.117447
C      0.568141    0.664438    0.829677
C      5.043633   -1.157190   -0.752168
C     -5.150081   -1.411233   -0.096912
C      5.126530   -0.249593    0.280982
C     -4.942790   -0.386386   -0.994583
C     -0.444934    0.475237   -0.248476
C      1.732848    1.395876    0.232216
C     -1.690334    1.145514    0.253287
C      0.109429    1.223704   -1.388297
O      6.112488   -1.977294   -1.065257
O     -6.265198   -2.242656   -0.202024
O      6.321809   -0.184473    1.000279
O     -5.863426   -0.187909   -2.014000
O     -0.324049    1.201833   -2.555720
O     -1.468737    1.544227    1.545652
O      1.188098    1.952353   -0.946900
H      1.858462   -0.469112   -1.730486
H     -2.384188   -0.898131    1.796527
H      3.793580   -1.929252   -2.270960
H     -4.381481   -2.397132    1.618519
H      4.117817    1.265512    1.383376
H     -3.686770    1.251778   -1.615700
H      0.226697    2.629849    1.670302
H      0.122079    1.321584    2.866894
H      0.906854   -0.287058    1.289268
H     -0.651926   -0.586112   -0.484676
H      2.128994    2.190043    0.903006
H     -1.897565    2.056487   -0.351322
H      6.986341   -1.982183   -0.596436
H     -6.381590   -2.983036    0.475992
H      6.479777    0.439873    1.765805
H     -6.665024   -0.795244   -2.079426
