95

C     -0.906744   -1.933945   -2.787366
C     -3.085323    2.568441    1.232495
C     -6.447478   -0.304921    1.807368
C     -5.531656    1.368436   -1.272101
C     -3.668274   -0.182269    1.969627
C     -1.338928    1.790886   -1.000277
C     -4.386063    2.259348   -0.845264
C     -6.499207    1.133560   -0.148973
C     -2.230435   -0.410098    1.680173
C     -0.363870    0.990371   -1.832289
C     -1.931778   -1.577673   -0.515024
C      4.106686    3.638170   -0.461436
C      2.556943   -4.821689   -2.724807
C     -0.267617   -0.167882    0.288075
C     -0.945444   -1.345514   -1.605340
C      4.481627    2.425629    0.337378
C      2.345614   -3.947940   -1.504829
C     -4.385980    0.519765    0.849043
C     -2.407378    0.872426   -0.494436
C      4.666442    2.860218    1.770233
C      3.563948   -3.946814   -0.607460
C      4.900084    1.670002    2.631120
C      3.217766   -3.040560    0.579024
C      4.880457    0.348579    1.940895
C      3.000127   -1.653620   -0.043441
C      3.983468    0.248323    0.754447
C      1.779362   -1.789271   -0.913840
C     -5.944829    2.045909    2.086857
C     -3.531048    1.583799    0.221536
C     -5.780031    0.927072    1.176246
C     -1.806455   -0.257969    0.259373
C      0.047578   -0.304003   -1.162483
O      5.179629    4.526081   -0.412848
O      2.732819   -6.139073   -2.287627
O      5.657693    3.833916    1.892959
O      3.894093   -5.226492   -0.168786
O      4.014075    1.690989    3.732920
O      4.212983   -3.018718    1.529004
O      6.212666   -0.000335    1.614018
O     -6.568334    3.065485    1.721226
O     -5.424059    2.009224    3.360618
O      3.462107    1.472676    0.345298
O      2.173854   -2.647754   -1.967790
O      2.950097   -0.653993    0.884410
O      1.335974   -0.627621   -1.472550
H     -1.655604   -2.669487   -3.026240
H     -0.156373   -1.709874   -3.525727
H     -3.876127    3.361484    1.340170
H     -2.170696    3.139489    0.977497
H     -2.920602    2.172642    2.248908
H     -6.114566   -1.237263    1.325620
H     -6.314628   -0.314779    2.901172
H     -7.534055   -0.208532    1.588565
H     -5.176279    0.434437   -1.752388
H     -6.081560    1.928739   -2.062828
H     -3.808462    0.391091    2.917573
H     -4.184563   -1.153853    2.129936
H     -1.785244    2.562219   -1.689666
H     -0.775139    2.335847   -0.250488
H     -4.836332    3.176229   -0.411127
H     -3.822498    2.528263   -1.739464
H     -7.093659    2.080146   -0.027564
H     -7.205673    0.341993   -0.393665
H     -1.962654   -1.466804    1.982343
H     -1.540924    0.215616    2.306723
H     -0.725202    0.822500   -2.851441
H      0.576424    1.610548   -1.903369
H     -2.905939   -1.729436   -0.966222
H     -1.681837   -2.434281    0.120420
H      3.262899    4.141194    0.081500
H      3.797107    3.369146   -1.479123
H      1.641351   -4.826747   -3.349488
H      3.400845   -4.460281   -3.310663
H      0.052252   -0.994361    0.933252
H      0.071057    0.777514    0.744535
H      5.430369    2.035250   -0.056430
H      1.461817   -4.272855   -0.926054
H     -4.499770   -0.268630    0.040208
H     -2.894344    0.440731   -1.421972
H      3.694876    3.342544    2.071641
H      4.407339   -3.438391   -1.121934
H      5.916377    1.807891    3.106497
H      2.267610   -3.446994    0.989513
H      4.595685   -0.413362    2.726266
H      3.881612   -1.498289   -0.700208
H      4.612449   -0.100707   -0.117312
H      1.007415   -2.309065   -0.278962
H      5.937600    4.215836   -0.988847
H      2.589766   -6.763348   -3.017954
H      6.538592    3.530093    1.624054
H      4.724124   -5.495416   -0.641552
H      4.432182    1.247870    4.525979
H      5.088462   -2.883938    1.082677
H      6.280991   -0.262788    0.655572
H     -5.851631    2.499019    4.146675
