42

C     -7.578113   -1.583475    0.065300
C     -3.879442    0.424507   -2.296518
C     -3.856565    0.442633    0.064634
C     -5.096323   -0.237958   -2.280139
C     -5.071626   -0.218871    0.068842
C      0.389688    0.363227   -0.608269
C      1.630174   -0.203205   -0.291002
C      6.541323   -1.404153   -0.421087
C      4.495543    0.751608    1.531939
C     -3.246730    0.771780   -1.127804
C     -5.704830   -0.566381   -1.087514
C     -0.134513    1.311889    0.232820
C      3.551441   -0.379691    1.163867
C      5.533303   -0.977810    0.612849
C     -1.977316    1.462755   -1.187871
C      1.748468    1.105252    1.612402
N     -1.260575    1.855793   -0.014288
N      0.545045    1.672534    1.329048
N      2.292173    0.174306    0.812902
O      6.335485   -0.661249   -1.576826
O     -1.486841    1.727088   -2.312739
O      2.442458    1.486961    2.750343
O     -6.935632   -1.236551   -1.124627
O      5.699986    0.398234    0.888573
O      4.229564   -0.966000    0.093993
H     -7.093214   -2.500727    0.458642
H     -8.644862   -1.820925   -0.188085
H     -7.565375   -0.770750    0.810639
H     -3.431310    0.666136   -3.273052
H     -3.385971    0.701138    1.024240
H     -5.558323   -0.491777   -3.236536
H     -5.556635   -0.480654    1.016212
H     -0.099532    0.025649   -1.504633
H      2.067978   -0.950906   -0.932135
H      6.472719   -2.489689   -0.577711
H      7.553376   -1.151620    0.010849
H      4.156281    1.722963    1.166857
H      4.644885    0.712315    2.631660
H      3.446896   -1.117158    1.988702
H      5.567854   -1.549130    1.539348
H      5.812845    0.160419   -1.403408
H      2.406245    0.921849    3.569583
