42

C      8.354524   -0.728887    0.061342
C      4.020778    0.739513    1.769268
C      4.108155    0.097502   -0.496878
C      5.382083    0.457150    1.884811
C      5.466817   -0.185146   -0.384510
C     -0.534555    0.215046   -2.123213
C     -1.893582   -0.063939   -2.184142
C     -6.337781    0.784024    1.009741
C     -4.509136   -1.638823   -0.443371
C      3.372387    0.559444    0.567937
C      6.117886   -0.007796    0.809221
C      0.044217    0.395359   -0.884823
C     -4.038608   -0.450636   -1.231819
C     -5.981516    0.036779   -0.272339
C      1.942159    0.846263    0.410610
C     -2.071232    0.016518    0.112569
N      1.298025    0.651832   -0.841143
N     -0.751014    0.288610    0.193032
N     -2.652641   -0.162243   -1.084285
O     -7.495802    0.286616    1.568597
O      1.240347    1.269385    1.363747
O     -2.817371   -0.074399    1.305444
O      7.456185   -0.258421    1.020891
O     -5.784227   -1.295819   -0.058138
O     -4.840263    0.591972   -0.782339
H      7.879623   -1.259579   -0.786834
H      9.116178   -1.373248    0.575113
H      8.898323    0.142578   -0.399154
H      3.429049    1.101493    2.591108
H      3.579302   -0.042223   -1.451151
H      5.865488    0.611677    2.853928
H      6.018598   -0.544066   -1.228677
H      0.073542    0.293266   -3.013488
H     -2.293819   -0.195954   -3.188456
H     -5.525215    0.632140    1.769256
H     -6.409970    1.867547    0.830847
H     -3.848604   -1.948589    0.364371
H     -4.614515   -2.538167   -1.119531
H     -4.298213   -0.638809   -2.290698
H     -6.852486    0.156723   -0.963342
H     -7.295111   -0.445877    2.178715
H     -2.818003    0.683869    1.987780
