33

C     -3.507047   -0.392375    1.749205
C     -2.766295    0.351615    0.604767
C      3.291202    0.142223   -0.749876
C      2.033491    0.757794   -0.615241
C      2.365407   -1.788518    0.225790
C     -1.208900   -1.507400    0.539469
C     -0.448044    2.070279   -0.494406
C     -1.351750   -0.007380    0.710450
C      3.442477   -1.142728   -0.320609
C      0.949079    0.128786   -0.072714
C      1.129341   -1.157981    0.348261
C     -1.123512    2.159689   -1.814684
F     -2.413796    1.747469   -1.871259
F     -0.353336    1.499571   -2.803870
F     -1.134787    3.491218   -2.285381
N     -0.348266    0.764668    0.065029
N      4.701075   -1.806590   -0.439921
O      4.797649   -3.099802    0.002281
O      5.695242   -1.245149   -0.929150
O      0.117337   -1.895702    0.904970
H     -2.776773   -0.470237    2.574118
H     -4.401269    0.206623    2.048983
H     -3.772495   -1.394821    1.406891
H     -3.033493    1.404068    0.639151
H     -3.248825   -0.092643   -0.315785
H      4.112001    0.666743   -1.179581
H      1.933927    1.770861   -0.968778
H      2.500001   -2.809298    0.565140
H     -1.491048   -1.854481   -0.464231
H     -1.868751   -2.000064    1.273266
H      0.440997    2.719240   -0.392057
H     -1.183181    2.658604    0.213812
H     -1.077656    0.125715    1.845957
