38

C      4.669041   -0.050895    0.268059
C      2.794113    0.094046   -1.243172
C      5.119403    1.165477   -0.155859
C      3.242499    1.309433   -1.667982
C      0.629514   -0.985626    0.910483
C     -0.627277   -0.520485    1.297049
C     -2.472414    1.901129   -0.439982
C     -3.971008   -0.457807    0.014580
C      3.509512   -0.586641   -0.273210
C      4.410682    1.843322   -1.118981
C      0.695346   -2.005289   -0.012911
C     -3.013184   -0.573388    1.181647
C     -3.426412    1.541947    0.664740
C      3.044402   -1.866611    0.179056
C     -1.662626   -2.082562   -0.149624
F      4.826770    3.048097   -1.561547
N      1.858559   -2.428610   -0.364285
N     -0.446420   -2.512672   -0.505562
N     -1.729046   -1.071549    0.765876
O     -3.124855    2.668441   -1.382480
O      3.698775   -2.481307    1.059741
O     -2.836626   -2.626310   -0.676128
O     -4.520811    0.824448    0.244583
O     -2.854354    0.736192    1.630067
H      5.222125   -0.597067    1.030508
H      1.901973   -0.376839   -1.622821
H      6.013200    1.619546    0.235460
H      2.684853    1.838081   -2.422846
H      1.510976   -0.530423    1.348373
H     -0.646457    0.278567    2.021524
H     -1.628997    2.463267    0.038910
H     -2.015331    1.033433   -0.939345
H     -4.744106   -1.244710    0.068894
H     -3.470980   -0.395756   -0.957902
H     -3.412445   -1.214351    1.991933
H     -3.743849    2.493029    1.142885
H     -2.453752    3.357340   -1.691232
H     -3.030794   -3.606893   -0.576015
