46

C      7.471338    1.786673    0.206539
C      6.551121    1.256912   -0.853650
C      5.525771    0.285356   -0.297500
C      4.698172    1.002322    0.737208
C      3.652039    0.131598    1.351722
C      2.659281   -0.423346    0.378675
C     -0.716325   -0.116026    0.276156
C     -2.029803   -0.487675    0.571805
C     -7.541269    0.111130   -0.168701
C     -4.649207   -1.149722    1.305838
C     -0.290068   -0.047768   -1.034472
C      1.889640    0.617838   -0.339771
C     -4.256872   -1.170326   -0.125403
C     -6.377030   -0.846574   -0.090986
C     -2.469933   -0.712684   -1.663472
N      0.924452    0.294181   -1.325220
N     -1.200710   -0.354614   -1.972983
N     -2.917491   -0.789146   -0.397605
O     -8.619435   -0.489911    0.468437
O      2.065894    1.836007   -0.099185
O     -3.388603   -1.025411   -2.682874
O     -6.061154   -1.112128    1.217512
O     -5.221640   -0.318575   -0.699375
H      7.241091    2.852458    0.478880
H      8.539606    1.814286   -0.151001
H      7.417286    1.211957    1.153884
H      7.190355    0.771210   -1.628171
H      6.071245    2.116654   -1.355911
H      4.946876   -0.147440   -1.114680
H      6.090435   -0.532400    0.204298
H      4.341949    1.945215    0.313785
H      5.422818    1.279323    1.560405
H      3.109189    0.636655    2.171282
H      4.202921   -0.744021    1.805110
H      3.248660   -1.022152   -0.362262
H      1.988941   -1.168223    0.860848
H     -0.019042    0.122889    1.076733
H     -2.363588   -0.541592    1.594478
H     -7.850513    0.320762   -1.199759
H     -7.288409    1.017953    0.389791
H     -4.309817   -2.098854    1.788804
H     -4.362930   -0.252286    1.856880
H     -4.516236   -2.193943   -0.527256
H     -6.626257   -1.826234   -0.581091
H     -8.593447   -1.471583    0.309459
H     -3.579299   -0.368744   -3.407200
