38

C     -4.811880   -1.313264   -0.704527
C     -4.452333    0.828357    0.188965
C     -5.984149   -1.436861    0.045075
C     -5.618762    0.724248    0.944913
C     -0.442266   -0.201386   -0.277309
C      0.786811   -0.304368    0.337506
C      4.698720   -2.018881   -0.085767
C      3.905441    1.236059    0.059740
C     -4.031098   -0.185064   -0.645286
C     -6.386577   -0.411725    0.872497
C     -0.841154    0.987035   -0.835326
C      2.897040    0.676685    1.033723
C      4.585454   -0.766739    0.787027
C     -2.816275   -0.087548   -1.438429
C      1.210192    1.926866   -0.154239
Br    -8.001495   -0.608118    1.891197
N     -1.978925    1.072680   -1.401453
N      0.001545    2.020545   -0.756477
N      1.595614    0.762598    0.389896
O      6.027942   -2.065562   -0.519924
O     -2.520061   -1.078077   -2.173466
O      2.070947    3.005177   -0.080735
O      4.912392    0.305632   -0.003795
O      3.269763   -0.647987    1.173389
H     -4.495718   -2.119374   -1.354971
H     -3.827833    1.711284    0.225962
H     -6.590136   -2.348628   -0.020202
H     -5.937807    1.515319    1.589331
H     -1.099820   -1.082155   -0.315766
H      1.130077   -1.223076    0.785437
H      4.438605   -2.927760    0.472748
H      4.036877   -1.881511   -0.962218
H      4.232641    2.237314    0.370841
H      3.473926    1.327819   -0.977957
H      2.930091    1.243036    1.989126
H      5.239152   -0.890219    1.678237
H      6.577625   -1.783710    0.254212
H      1.815434    3.801359    0.487664
