38

C     -5.086153   -0.980595   -0.270899
C     -5.247249    1.330700    0.204669
C     -6.439683   -1.013821   -0.518423
C     -6.581546    1.275786   -0.044171
C     -0.209330   -1.985084    0.155408
C      1.186557   -1.916178    0.167869
C      5.765631    1.800511    0.394608
C      3.885440   -0.839456   -1.064794
C     -4.477044    0.197866    0.094289
C     -7.216990    0.114161   -0.410361
C     -0.960976   -0.834531    0.263633
C      3.260703   -0.712295    0.292982
C      5.063809    0.466610    0.316719
C     -3.063601    0.277059    0.362477
C      1.080263    0.367407    0.388424
Br    -9.102845    0.081329   -0.752302
N     -2.263924   -0.865719    0.255204
N     -0.277562    0.318179    0.378024
N      1.829314   -0.744567    0.283921
O      7.066439    1.591175   -0.108752
O     -2.530216    1.364587    0.694347
O      1.718281    1.605217    0.510862
O      4.997062   -0.004224   -0.972595
O      3.724540    0.558366    0.694195
H     -4.509254   -1.911596   -0.371573
H     -4.795776    2.284134    0.492783
H     -6.957422   -1.928725   -0.809900
H     -7.201865    2.171866    0.041181
H     -0.739657   -2.922882    0.062451
H      1.767484   -2.816511    0.083150
H      5.234405    2.591500   -0.189686
H      5.854224    2.087138    1.455880
H      4.161204   -1.901650   -1.221945
H      3.216720   -0.503602   -1.883267
H      3.713151   -1.441145    0.996085
H      5.584991   -0.217260    1.012031
H      7.334722    0.633247   -0.013335
H      1.216152    2.423002    0.174306
