46

C      5.783976   -0.849344    1.054957
C      5.806293   -1.915535    0.033146
C      4.590658   -2.192192   -0.757744
C      4.023420   -1.118215   -1.599270
C      3.501438    0.093269   -0.906419
C      2.331425   -0.269024    0.015572
C     -0.638722    1.337910   -0.131075
C     -1.927787    1.543110   -0.552145
C     -4.360041   -1.059472   -1.210710
C     -5.380704    1.010371    0.332062
C     -0.417948    1.148126    1.209672
C      1.844721    0.939433    0.705232
C     -4.270308    1.791043   -0.282578
C     -5.051049    0.205961   -1.644593
C     -2.747772    1.379549    1.593023
N      0.779496    0.954920    1.621728
N     -1.493603    1.178890    2.010837
N     -2.976111    1.565849    0.287891
O     -5.308687   -2.081321   -1.233260
O      2.409947    2.041168    0.469222
O     -3.793133    1.396751    2.477322
O     -6.083265    0.490507   -0.780584
O     -4.257230    1.323691   -1.593149
H      4.806434   -0.707768    1.526109
H      6.468791   -1.179242    1.896106
H      6.268763    0.106889    0.712768
H      6.705232   -1.787656   -0.652500
H      6.063068   -2.885051    0.571131
H      3.777186   -2.546739   -0.068334
H      4.826503   -3.096379   -1.399547
H      4.754679   -0.756413   -2.382821
H      3.189267   -1.550441   -2.231838
H      4.264948    0.640696   -0.355517
H      3.103551    0.773856   -1.716264
H      1.527406   -0.725769   -0.627412
H      2.665688   -1.031877    0.722251
H      0.179267    1.324977   -0.825970
H     -2.055757    1.689896   -1.630999
H     -3.921365   -1.022664   -0.215609
H     -3.556405   -1.359190   -1.915578
H     -5.076954    0.170641    0.965532
H     -6.069623    1.715098    0.840867
H     -4.453009    2.885851   -0.301888
H     -5.402292    0.041096   -2.683463
H     -6.168278   -1.801377   -0.829595
H     -4.262115    2.186123    2.850214
