38

C      6.600736   -0.580401    0.019062
C      5.412906   -1.194279   -0.292506
C      0.770431   -0.073644   -0.723475
C     -0.409295    0.578293   -0.979843
C      5.436496    0.928278    1.393505
C     -5.825790   -0.088420   -0.021161
C     -3.327873    0.479501   -1.729065
C      6.625268    0.497782    0.874230
C      4.208622   -0.746156    0.243233
C      4.232754    0.312813    1.083936
C      0.836276   -0.917532    0.345016
C     -2.679549    1.106543   -0.505578
C     -4.883699    1.085781   -0.274021
C      3.019302   -1.420866   -0.158069
C     -1.425910   -0.441767    0.861229
Cl     8.159997    1.258865    1.260318
Cl     2.778137    0.963377    1.844731
N      1.903790   -1.603788    0.677513
N     -0.261868   -1.098307    1.132331
N     -1.501166    0.387855   -0.180814
O     -6.134304   -0.125784    1.318751
O      2.947759   -1.900016   -1.358535
O     -2.513675   -0.666769    1.701261
O     -4.599849    1.068794   -1.629890
O     -3.700600    0.952564    0.425373
H      7.532086   -0.945708   -0.415604
H      5.401372   -2.046304   -0.965761
H      1.624237    0.072305   -1.346682
H     -0.465868    1.244747   -1.824910
H      5.440044    1.786777    2.067501
H     -6.714558    0.086471   -0.665623
H     -5.316995   -1.021340   -0.314581
H     -3.410444   -0.621582   -1.523954
H     -2.794927    0.710986   -2.649531
H     -2.500484    2.171441   -0.736443
H     -5.388674    2.038518    0.007362
H     -5.799336   -0.980516    1.717555
H     -3.275351   -1.258511    1.323142
