38

C      4.878126    1.303616   -1.210669
C      4.351555   -0.392371    0.400659
C      5.859660    1.776732   -0.370680
C      5.344109    0.109130    1.217094
C      0.558195    0.007071   -0.669237
C     -0.726737    0.153299   -0.140002
C     -5.308903    1.681361    0.878350
C     -3.854189   -1.383027   -0.142211
C      4.118761    0.220786   -0.835670
C      6.125037    1.198654    0.865837
C      1.079980   -1.256921   -0.829806
C     -2.789506   -0.802446    0.763296
C     -4.564838    0.376159    1.039565
C      3.072871   -0.302095   -1.703952
C     -0.930278   -2.124731    0.047644
Cl     7.381528    1.823905    1.913116
N      2.276932   -1.429846   -1.321157
N      0.322137   -2.299729   -0.466733
N     -1.467669   -0.911331    0.217002
O     -5.057469    2.196897   -0.384897
O      2.890866    0.273123   -2.807637
O     -1.666890   -3.241069    0.405183
O     -4.959209   -0.567477    0.094290
O     -3.194536    0.532388    0.836076
H      4.676996    1.764245   -2.180008
H      3.770594   -1.246791    0.724716
H      6.442306    2.625504   -0.684058
H      5.505496   -0.384622    2.172385
H      1.135953    0.862889   -0.948762
H     -1.153097    1.138468   -0.006655
H     -5.017649    2.374796    1.676380
H     -6.398187    1.496729    0.937982
H     -4.116523   -2.413090    0.084668
H     -3.504557   -1.212870   -1.186243
H     -2.859250   -1.204790    1.798750
H     -4.714428   -0.074570    2.033458
H     -5.322094    3.147201   -0.468306
H     -2.185095   -3.815177   -0.252577
