52

C      7.829358    0.133305    1.973086
C      7.319602   -0.667444    0.794288
C      6.321218    0.222636    0.053974
C      5.751854   -0.487394   -1.145189
C      4.787720    0.393512   -1.862900
C      3.656950    0.799225   -0.985837
C      2.898930   -0.388810   -0.496361
C      1.735623   -0.028715    0.390182
C     -1.872143    0.073330   -0.808859
C     -3.208920   -0.278940   -1.025767
C     -8.225030   -1.363461    1.424340
C     -5.787858   -1.409764   -1.084789
C     -1.545603    1.012746    0.146874
C      0.766810    0.788183   -0.359325
C     -5.576875   -0.036735   -0.493434
C     -7.440249   -0.778812    0.273603
C     -3.862290    1.196759    0.611436
N     -0.314595    1.352192    0.362894
N     -2.563689    1.553387    0.837405
N     -4.197153    0.288514   -0.310342
O     -8.614840   -0.422678    2.343249
O      0.825924    1.018777   -1.578484
O     -4.856541    1.798129    1.363435
O     -7.062061   -1.745762   -0.633118
O     -6.276848   -0.143878    0.708161
H      8.229540   -0.563693    2.726224
H      7.028203    0.759116    2.409194
H      8.633703    0.849096    1.645948
H      8.119557   -0.959092    0.105270
H      6.835490   -1.582061    1.171117
H      6.831945    1.130913   -0.322123
H      5.580493    0.517827    0.808859
H      5.311756   -1.483032   -0.910791
H      6.634899   -0.662373   -1.832781
H      4.427023   -0.192920   -2.753891
H      5.330527    1.254962   -2.310408
H      3.035595    1.526266   -1.553093
H      3.999578    1.362060   -0.088036
H      2.520066   -0.933790   -1.395156
H      3.583878   -1.112507    0.006335
H      1.223458   -0.991620    0.633784
H      2.067652    0.491597    1.314802
H     -1.070077   -0.383155   -1.385206
H     -3.468629   -1.020116   -1.779564
H     -7.593156   -2.137612    1.887501
H     -9.109298   -1.869667    0.988979
H     -5.087900   -2.164189   -0.641228
H     -5.720576   -1.402422   -2.199480
H     -6.122358    0.685848   -1.129430
H     -8.071172    0.014053   -0.190611
H     -8.607939    0.482062    1.991585
H     -5.031553    1.452421    2.303680
