73

C     -9.173512    0.111895    1.081901
C     -7.768556    0.343083    0.516836
C     -7.840085    1.241358   -0.702789
C     -6.473880    1.499081   -1.307113
C     -5.524874    2.161921   -0.374524
C     -4.192498    2.343813   -0.936542
C     -3.214675    1.274320   -1.058972
C     -3.371071   -0.042691   -1.635953
C     -4.112257   -1.091522   -0.972955
C     -3.768324   -1.645953    0.359017
C     -2.452447   -2.282216    0.477582
C     -1.273499   -1.357463    0.467732
C     -1.321266   -0.541947    1.725309
C     -0.219957    0.458171    1.873657
C      1.174740   -0.052294    1.906601
C      4.274363   -0.323653    0.106359
C      5.601961   -0.085079   -0.209848
C      9.714569    1.735145   -1.716558
C      8.687847   -0.204254    0.620215
C      3.838922   -1.569987    0.494797
C      1.703886   -0.662340    0.684847
C      7.887846   -0.930595   -0.449390
C      9.502227    0.259093   -1.394970
C      6.044619   -2.281836    0.239697
N      2.604629   -1.785801    0.785591
N      4.773949   -2.541830    0.550028
N      6.498068   -1.057605   -0.146925
O      8.937346    2.537213   -0.887665
O      1.388637   -0.215476   -0.455304
O      6.968067   -3.337816    0.317786
O      9.862857    0.055151   -0.085719
O      8.164180   -0.115627   -1.546857
H     -9.312687   -0.960246    1.303560
H     -9.320282    0.663407    2.034265
H     -9.953744    0.445987    0.361261
H     -7.310345   -0.628020    0.284442
H     -7.182449    0.821265    1.323784
H     -8.408486    0.663377   -1.485509
H     -8.397731    2.157464   -0.494178
H     -6.713352    2.345901   -2.077678
H     -6.170985    0.680444   -1.912781
H     -6.014293    3.127657   -0.056188
H     -5.453035    1.584214    0.602190
H     -3.657754    3.177349   -0.316182
H     -4.272635    2.911732   -1.950651
H     -2.771491    1.169905    0.022634
H     -2.283335    1.739426   -1.625251
H     -2.410214   -0.408776   -2.147620
H     -3.984930    0.096294   -2.665875
H     -4.106855   -2.010219   -1.725558
H     -5.222637   -0.922210   -0.948584
H     -3.847439   -0.856633    1.163901
H     -4.596132   -2.373364    0.687638
H     -2.432475   -2.903123    1.444995
H     -2.336268   -3.050236   -0.372796
H     -0.337566   -1.992570    0.439042
H     -1.197237   -0.676555   -0.362724
H     -1.218736   -1.233322    2.628993
H     -2.264269   -0.017652    1.916886
H     -0.382916    1.062206    2.823215
H     -0.371119    1.192809    1.020181
H      1.877626    0.751478    2.290780
H      1.195896   -0.833462    2.731239
H      3.555686    0.491013    0.047780
H      5.920186    0.900806   -0.512105
H     10.789011    1.942264   -1.536789
H      9.454950    1.966075   -2.761987
H      8.842011   -0.801647    1.519700
H      8.239950    0.804941    0.832732
H      8.391377   -1.890566   -0.635952
H     10.080500   -0.380065   -2.091120
H      9.503617    3.096178   -0.298603
H      7.158776   -3.747790    1.217074
