52

C     -8.040131    1.700815    1.097755
C     -7.018343    0.984823    0.271959
C     -6.105859    0.115117    1.076338
C     -5.322251    0.890918    2.111388
C     -4.458785    1.951593    1.509852
C     -3.456527    1.372635    0.549914
C     -2.532865    0.384569    1.206302
C     -1.536444   -0.177881    0.229717
C      1.817621   -0.279274    0.108181
C      3.071951   -0.849353    0.358438
C      8.076678   -0.584300   -2.106670
C      5.983516   -1.278689    0.661027
C      1.391153   -0.099715   -1.190495
C     -0.634646    0.834423   -0.364403
C      5.173599   -1.818945   -0.442475
C      7.251161   -1.316913   -1.074172
C      3.440769   -1.044350   -1.896283
N      0.229544    0.427427   -1.451611
N      2.229542   -0.494145   -2.162276
N      3.887675   -1.233734   -0.639167
O      8.303601   -1.491726   -3.151740
O     -0.633825    1.992225    0.072515
O      4.270642   -1.435982   -2.964688
O      6.952970   -0.517020    0.028766
O      5.995311   -1.642932   -1.579646
H     -8.663652    2.331889    0.450637
H     -7.513888    2.388670    1.800000
H     -8.709640    1.006779    1.635801
H     -6.443252    1.744888   -0.292342
H     -7.529326    0.357082   -0.474407
H     -6.707273   -0.682197    1.578703
H     -5.389209   -0.397418    0.406599
H     -4.690348    0.177733    2.672294
H     -6.012847    1.405218    2.822960
H     -3.863275    2.391779    2.356029
H     -5.043184    2.761799    1.035173
H     -3.995290    0.887898   -0.319806
H     -2.884038    2.221063    0.132056
H     -2.046368    0.793624    2.109668
H     -3.171834   -0.482789    1.532767
H     -2.143923   -0.575456   -0.627693
H     -0.950139   -1.016603    0.693726
H      1.205357    0.010190    0.928030
H      3.425286   -0.999274    1.357939
H      9.074016   -0.363251   -1.676328
H      7.565108    0.289133   -2.508945
H      5.443635   -0.736176    1.449910
H      6.545221   -2.099662    1.196743
H      5.113568   -2.940947   -0.323200
H      7.780285   -2.247509   -0.781619
H      7.402114   -1.701520   -3.528659
H      3.866844   -1.502622   -3.884564
