68

C      8.973775   -0.391864    0.818145
C      7.708132    0.141344    1.436639
C      6.895370    0.789435    0.319009
C      6.594987   -0.267683   -0.715995
C      5.801568    0.304334   -1.843603
C      4.476918    0.880353   -1.435391
C      3.588095   -0.162265   -0.791478
C     -6.421431    3.160126   -0.077637
C     -5.254385    3.379824    0.627475
C     -6.412386    2.227312   -1.066577
C      2.284560    0.499495   -0.422574
C     -4.099052    2.680364    0.349091
C     -5.270365    1.526447   -1.351903
C      1.329490   -0.491219    0.236803
C     -4.551131   -1.764104   -1.002471
C     -4.130890   -2.916232    0.998424
C     -5.043058   -3.197806   -1.339776
C     -5.634640   -3.123351    0.874088
C     -3.282361   -0.755165    0.837783
C     -4.104193    1.739024   -0.654819
C     -2.370496    0.264528    0.278341
C      0.049212    0.187968    0.582694
C     -2.829562    1.024833   -0.937932
N     -1.023573   -0.248088    0.075926
N     -3.679633   -1.863487    0.090992
O      0.081142    1.257070    1.434735
O     -1.879329    2.074697   -1.093672
O     -6.000091   -3.518832   -0.391737
Cl     0.685768    0.000000    0.000000
H      9.806837   -0.324407    1.549076
H      8.780896   -1.439133    0.501112
H      9.187120    0.175149   -0.111081
H      7.105421   -0.653938    1.901629
H      7.994687    0.886428    2.204596
H      7.463312    1.588909   -0.181129
H      6.005351    1.222799    0.777725
H      7.575708   -0.599102   -1.142788
H      6.060216   -1.127511   -0.264439
H      6.381349    1.132378   -2.314951
H      5.616615   -0.480736   -2.609891
H      4.573868    1.775035   -0.797708
H      3.961808    1.209748   -2.360885
H      3.471704   -1.038849   -1.421700
H      4.085946   -0.440159    0.168693
H     -7.327699    3.732494    0.164975
H     -5.218628    4.110159    1.419454
H     -7.323815    2.033796   -1.640571
H      2.441265    1.353808    0.263445
H      1.741264    0.897171   -1.305434
H     -3.193421    2.858868    0.902881
H     -5.281899    0.780180   -2.155307
H      1.171164   -1.376359   -0.392806
H      1.798257   -0.842966    1.175634
H     -4.105888   -1.428752   -1.954008
H     -5.498610   -1.240012   -0.738355
H     -3.601155   -3.848983    0.785185
H     -3.937943   -2.647758    2.058766
H     -4.180381   -3.887722   -1.321275
H     -5.537321   -3.121947   -2.324808
H     -6.143791   -2.209590    1.201100
H     -5.900140   -3.927311    1.573830
H     -2.753870   -1.163690    1.767006
H     -4.153671   -0.196999    1.300519
H     -2.270824    1.059299    1.080151
H     -2.814686    0.494521   -1.876563
H     -0.625179    1.459479    2.129529
H     -1.150537    1.788641   -1.705723
H     -0.685768    0.000000    0.000000
