44

C     -1.355113   -0.912487    1.918350
C      5.813110   -0.875713   -0.813448
C      6.145510    0.805958    0.989853
C     -4.661967   -0.602742    1.362642
C     -3.222914    1.741695   -1.897892
C      1.288362    1.270955   -1.844198
C     -0.048840    1.610793   -1.888422
C     -2.327555   -1.781101   -0.219123
C     -3.688755   -1.306286   -0.690663
C      0.793002   -0.400965   -0.194316
C      1.699211    0.257601   -0.988105
C     -0.549612   -0.061110   -0.237608
C     -0.968879    0.938516   -1.078981
C     -2.754597    0.463670    0.360026
C      3.929258    0.500184   -0.028794
C     -1.717000   -0.594655    0.485826
N      5.289266    0.144988    0.048586
N     -4.026870   -0.187490    0.140898
N     -2.389914    1.085713   -0.920417
O      3.439564    1.392128    0.714254
O      3.046540   -0.106255   -0.923519
H     -1.743623   -1.898006    2.247325
H     -0.250046   -0.977162    1.998240
H     -1.666565   -0.082754    2.596967
H      6.843186   -0.633406   -1.159279
H      5.187187   -0.919510   -1.731285
H      5.795044   -1.886436   -0.346106
H      6.971143    0.136763    1.354218
H      6.643225    1.706219    0.555124
H      5.595701    1.140625    1.894778
H     -4.028372   -1.192061    2.030219
H     -5.508600   -1.285662    1.060627
H     -5.103049    0.230033    1.913613
H     -3.042682    1.333895   -2.922926
H     -4.290379    1.622474   -1.664388
H     -2.918555    2.816889   -1.903049
H      2.038046    1.752838   -2.442667
H     -0.395022    2.395874   -2.546016
H     -1.715280   -1.977921   -1.127786
H     -2.395832   -2.672001    0.419203
H     -4.446853   -2.097215   -0.645021
H     -3.623289   -0.915917   -1.748408
H      1.093650   -1.191797    0.477832
H     -2.770845    1.210842    1.153432
