34

C      3.714057    1.669496    0.044346
C      1.591379   -1.406334    1.119069
C      3.746488    0.166815   -0.051274
C     -3.142940   -1.691082    0.341285
C     -1.813144   -1.774587    0.021319
C     -3.799200   -0.491976    0.354633
C      0.264684   -0.641382   -0.820668
C     -1.795743    0.538219   -0.256192
C      1.402656   -0.362963    0.064114
C     -1.104535   -0.646497   -0.296853
C     -3.120333    0.665024    0.051632
C     -3.839302    1.918861   -0.130700
F     -4.725529    2.068805    0.887281
F     -2.969593    2.980349   -0.285078
F     -4.597256    1.799818   -1.319030
N      2.619502   -0.351779   -0.745012
Cl     0.688943    0.000000    0.000000
H      4.758727    2.089934    0.183902
H      3.377381    2.050084   -0.985935
H      3.040074    2.023835    0.805792
H      2.571788   -1.945669    1.002627
H      1.517748   -1.017801    2.124342
H      0.778654   -2.204574    1.045271
H      3.672048   -0.161410    1.054609
H      4.679267   -0.254974   -0.384107
H     -3.732770   -2.579969    0.519371
H     -1.324291   -2.711106    0.024542
H     -4.884683   -0.489377    0.577638
H      0.247273    0.041788   -1.718397
H      0.378787   -1.657063   -1.300835
H     -1.215043    1.476559   -0.462561
H      1.262797    0.643884    0.518455
H      2.441051    0.255073   -1.621329
H     -0.688943    0.000000    0.000000
