30

C     -2.642112   -0.134467   -1.461391
C     -3.105634   -0.648274    0.911000
C     -2.472811    1.605504    0.246920
C      1.841301   -1.162190    0.963368
C      2.493345   -2.304769    0.170216
C      2.753825    0.302926   -0.670080
C      3.398370    1.259816    0.227883
C      0.213818    0.277125   -0.421523
C     -2.212410    0.129121   -0.053215
N      1.531526   -0.174500   -0.057249
O      4.488254    1.847577   -0.037699
O      2.822829    1.563576    1.431553
O      0.045890    1.125864   -1.307174
O     -0.890930   -0.238820    0.221982
S      3.692430   -1.274465   -0.775464
H     -2.360766    0.696652   -2.144140
H     -2.316070   -1.115289   -1.848806
H     -3.768102   -0.158719   -1.470389
H     -4.072688   -0.131156    1.030742
H     -2.568612   -0.670305    1.895720
H     -3.235598   -1.697437    0.574700
H     -3.464839    1.844203   -0.158368
H     -1.693556    2.250236   -0.210009
H     -2.428555    1.706835    1.353484
H      0.942878   -1.475564    1.475031
H      2.643042   -0.760143    1.612858
H      2.997705   -3.017358    0.814910
H      1.764394   -2.735988   -0.536936
H      2.584524    0.690085   -1.690851
H      3.018554    2.399924    1.972214
