30

C      2.575320    0.842462    1.384435
C      2.699287    1.412042   -0.977436
C      2.874875   -0.937788   -0.249974
C     -2.382765   -1.414555    1.032076
C     -3.122434   -2.269006    0.001900
C     -2.113038    0.185671   -0.733926
C     -2.663172    1.460289   -0.218060
C     -0.068613   -0.528729    0.542383
C      2.166944    0.372555    0.017415
N     -1.461660   -0.587216    0.295199
O     -2.554724    1.787833    0.969560
O     -3.320910    2.317087   -1.087337
O      0.480138   -1.225035    1.460839
O      0.800280    0.274902   -0.179083
S     -3.461249   -0.955164   -1.239701
H      2.006756    1.721350    1.730919
H      2.592406    0.010210    2.108746
H      3.642511    1.192647    1.291276
H      1.991914    2.267604   -0.919057
H      2.740113    0.986502   -1.991991
H      3.719414    1.722577   -0.646121
H      2.118514   -1.727748   -0.499697
H      3.412683   -1.309891    0.643143
H      3.620144   -0.833149   -1.082939
H     -1.880815   -2.007822    1.782076
H     -3.140579   -0.767221    1.515102
H     -2.464570   -3.009943   -0.473009
H     -4.039393   -2.659755    0.433980
H     -1.503895    0.348819   -1.628066
H     -3.263481    3.330473   -0.986145
