45

C      3.781098   -1.988032    0.499361
C     -5.558346   -1.757404   -0.463092
C     -1.491104   -2.360675   -1.160162
C     -2.821467   -2.156186   -0.927522
C      3.776431    1.066256    0.306481
C      3.813841    0.016855   -0.828806
C      0.841375   -1.582458   -1.152588
C      1.899961    2.610334    0.875857
C     -1.447695    4.020745    1.211343
C     -0.581819   -1.391279   -0.800915
C      2.306753    1.369204    0.459889
C      1.695040   -0.959688   -0.114083
C     -3.284721   -1.011568   -0.344415
C      0.558425    2.931419    1.008391
C      1.311462    0.440660    0.176143
C     -1.031597   -0.210041   -0.198570
C     -0.050459    0.763965    0.303862
C     -2.360200   -0.010765    0.030540
C     -0.433533    2.016205    0.724860
N      3.078261   -1.080471   -0.338298
O     -2.859446    1.120235    0.615209
O     -4.614846   -0.775210   -0.098767
O     -0.052676    4.110992    1.410886
O     -1.602962    2.664847    0.959195
Cl     0.688886    0.000000    0.000000
H      3.374822   -2.999786    0.506209
H      3.688103   -1.607823    1.557664
H      4.848465   -1.990149    0.217753
H     -5.414816   -2.689363    0.099827
H     -6.583376   -1.320117   -0.318778
H     -5.432028   -1.989596   -1.544321
H     -1.135832   -3.274883   -1.623933
H     -3.537995   -2.905306   -1.204341
H      4.170755    0.632917    1.225086
H      4.325811    1.968774   -0.018114
H      4.840378   -0.284332   -1.035660
H      3.393325    0.455069   -1.741974
H      0.993895   -1.161823   -2.167877
H      1.030561   -2.673822   -1.206173
H      2.674178    3.334643    1.098274
H     -1.702716    4.578212    0.278406
H     -2.018043    4.382671    2.090298
H      1.480592   -1.556984    0.846886
H     -3.867856    1.253759    0.785970
H     -0.688886    0.000000    0.000000
