97

C      5.512476   -1.123946    1.264461
C      5.828484   -0.292724   -0.999676
C     -2.637392   -3.944212   -0.362847
C     -5.235531    2.845634    1.900073
C     -2.119239   -3.562814    0.852274
C     -2.830177   -3.000372   -1.331310
C     -5.398006    1.550270    1.448263
C     -3.981661    3.401434    1.921798
C     -0.368981    2.553149   -2.801702
C     -1.793982   -2.224934    1.092624
C     -2.506097   -1.675757   -1.087825
C     -4.292402    0.833505    1.024480
C     -2.882288    2.662368    1.490734
C      0.813481    1.975489   -2.530084
C     -1.343021    2.103828   -1.791913
C      2.577996   -0.781587    0.957194
C      4.900969   -0.242850    0.196136
C     -1.984787   -1.264198    0.121466
C     -3.026108    1.368881    1.036903
C      0.637051    1.144828   -1.348156
C      3.530782   -0.754223   -0.219015
C     -0.752278    1.279754   -0.942248
C      1.522684    0.391597   -0.717231
N      2.895548    0.227546   -1.077291
O      1.333868   -0.394066    0.409941
P     -1.545088    0.458225    0.487390
C     -1.506885    4.116999    0.693725
C      4.373930   -0.562963   -0.336905
C     -2.740871   -3.505097    0.601586
C     -1.640341    3.805546   -0.649602
C     -0.962445    3.179352    1.535913
C      3.888590    0.542103   -1.000431
C      3.527472   -1.525961    0.185809
C     -2.778836   -3.094380   -0.718751
C     -1.913284   -2.860047    1.486745
C     -1.218312    2.559479   -1.087322
C     -0.547178    1.943954    1.085680
C      2.519693    0.668321   -1.133651
C      2.172319   -1.349393    0.023925
C     -1.982501   -2.043113   -1.118468
C     -1.119220   -1.800916    1.056602
C     -0.672150    1.618732   -0.242742
C      1.653005   -0.271390   -0.625356
C     -1.139155   -1.372457   -0.255173
P     -0.129763   -0.007229   -0.856847
C      0.525368    1.037077   -0.092667
C     -0.771934    0.916982    0.096913
C      1.042144   -0.309527   -0.280198
C     -1.180534   -0.498098    0.046000
C      0.086171   -1.209357   -0.205668
Cl     0.000000    0.000000    0.000000
Cl     0.000000    0.000000    0.000000
Fe     0.000000    0.000000    0.000000
Ru     0.000000    0.000000    0.000000
H      6.326739   -0.513095    1.737001
H      6.026652   -1.959922    0.746792
H      4.772833   -1.468375    2.003971
H      5.708793    0.645419   -1.579829
H      5.570908   -1.168771   -1.656398
H      6.897292   -0.340982   -0.685299
H     -2.897351   -4.984307   -0.568818
H     -6.098837    3.437076    2.242643
H     -1.975102   -4.326831    1.604100
H     -3.240302   -3.313392   -2.287810
H     -6.400843    1.151930    1.447835
H     -3.867118    4.409825    2.275261
H     -0.552143    3.225958   -3.621524
H     -1.390479   -1.984814    2.065941
H     -2.653062   -0.914459   -1.845971
H     -4.410796   -0.164186    0.675509
H     -1.918576    3.157648    1.532435
H      1.748142    2.080045   -3.063599
H     -2.389723    2.409076   -1.757561
H      2.541645   -1.847744    1.300646
H      2.898080   -0.128032    1.781665
H      4.809647    0.806522    0.537142
H      3.637297   -1.743414   -0.702784
H     -1.823499    5.066149    1.052139
H      5.444389   -0.721634   -0.197870
H     -3.383039   -4.343032    0.895410
H     -2.057483    4.493395   -1.359017
H     -0.858197    3.432095    2.605090
H      4.574489    1.281205   -1.400027
H      3.928294   -2.393939    0.707844
H     -3.434653   -3.599045   -1.439092
H     -1.906563   -3.201930    2.502782
H     -1.307467    2.274151   -2.147051
H     -0.121672    1.236135    1.796415
H      2.169341    1.559145   -1.666750
H      1.496271   -2.088436    0.423920
H     -2.042210   -1.753382   -2.159683
H     -0.462069   -1.282414    1.741153
H      1.109986    1.953738   -0.108822
H     -1.492607    1.727417    0.272673
H      2.096832   -0.574963   -0.463486
H     -1.615490   -0.743675    1.046014
H      0.200064   -2.299594   -0.310759
