45

C     -3.393083   -2.483695    0.226962
C      5.668250   -1.491902    0.075475
C      1.521923   -2.390001    0.614375
C      2.865933   -2.153985    0.454445
C     -3.688170    1.070539    0.091296
C     -3.986207   -0.286384   -0.466992
C     -0.806776   -1.823874    0.622999
C     -1.987048    2.759107   -0.506185
C      1.308114    4.212653   -0.739497
C      0.574897   -1.406643    0.419402
C     -2.282803    1.488521   -0.130978
C     -1.822466   -0.779811    0.474333
C      3.291939   -0.901760    0.088702
C     -0.663099    3.091582   -0.701217
C     -1.307482    0.537863    0.056932
C      1.023302   -0.138440    0.047998
C      0.014076    0.888795   -0.143509
C      2.348860    0.122587   -0.117352
C      0.375822    2.169556   -0.526609
N     -2.921306   -1.233523   -0.341421
O      2.856304    1.334754   -0.477921
O      4.622831   -0.581872   -0.092835
O     -0.065667    4.301875   -1.082785
O      1.553274    2.829589   -0.801469
Cl     0.686717    0.000000    0.000000
H     -4.357033   -2.236480    0.750033
H     -3.631073   -3.231871   -0.555970
H     -2.718426   -2.861849    1.002416
H      5.683047   -2.161354   -0.814796
H      6.641247   -1.000590    0.263672
H      5.442616   -2.096443    0.996493
H      1.248147   -3.399358    0.904213
H      3.618316   -2.918243    0.604678
H     -4.330818    1.796008   -0.449517
H     -3.946290    1.150857    1.161355
H     -4.869565   -0.688545    0.071382
H     -4.271154   -0.223088   -1.537737
H     -1.007493   -2.674189   -0.092277
H     -0.847095   -2.333196    1.632246
H     -2.715268    3.517146   -0.659855
H      1.958738    4.704765   -1.495402
H      1.433885    4.606669    0.276202
H     -2.279968   -0.599771    1.495500
H      3.846765    1.514003   -0.596785
H     -0.686717    0.000000    0.000000
