82

C      4.452615    1.019752    2.927783
C     -1.302583    0.589892   -2.321035
C     -0.637691    1.599093   -2.993023
C     -2.999431    2.136471   -1.784634
C     -7.093894   -2.254892    1.436402
C     -6.674314   -0.255481    0.195452
C      2.409335   -0.429738   -1.558958
C      3.848609    1.996752    1.931489
C     -2.486829    0.857213   -1.712237
C     -7.538068   -1.062036    0.908958
C     -1.114344    2.880949   -3.085555
C     -2.334359    3.128180   -2.452936
C     -5.781058   -2.615615    1.234149
C     -5.340375   -0.600312   -0.022086
C      1.685316   -1.246281   -0.498462
C     -4.922634   -1.803816    0.519433
C      4.887937    2.958832    1.432865
C      1.276672   -2.585495   -1.065154
C     -3.607473   -2.158562    0.318821
C      5.074734    2.898069   -0.059500
C      0.843988   -3.470158    0.084853
C      5.020758    1.455855   -0.508478
C      0.103410   -2.603748    1.049245
C     -3.255635   -0.117273   -0.927531
C     -2.787991   -1.287386   -0.412274
C      3.723475    0.827546   -0.092706
C     -0.467692   -1.364241    0.387042
O     -8.867797   -0.724707    1.128457
O     -0.478558    3.908077   -3.747955
O     -2.840503    4.438222   -2.536330
O     -5.271490   -3.815071    1.744480
O      4.648526    4.277498    1.810379
O      2.309573   -3.172422   -1.796850
O     -3.187611   -3.247981    0.794142
O      6.283068    3.431590   -0.469027
O      0.115602   -4.538584   -0.381552
O      6.136141    0.729936   -0.118663
O      0.949317   -2.142834    2.086846
O      2.821875    0.801608   -1.144323
O      3.093835    1.411761    0.971228
O     -4.547306    0.170234   -0.693505
O      0.565395   -0.565302   -0.095538
O     -1.460203   -1.677286   -0.581218
O     -0.003147    0.384981   -0.000000
O     -0.001166    0.371609   -0.000000
O     -0.003315    0.356198   -0.000000
H      4.589773    1.497222    3.941568
H      5.493851    0.757169    2.603328
H      3.827077    0.138479    3.086994
H     -0.857766   -0.420802   -2.322813
H      0.327771    1.381319   -3.487568
H     -3.968669    2.377830   -1.296633
H     -7.749200   -2.915866    2.004958
H     -7.052832    0.662457   -0.199156
H      3.205817   -1.093989   -1.960214
H      1.704485   -0.269404   -2.406253
H      3.137032    2.623032    2.556261
H      2.334897   -1.404318    0.389019
H      5.859348    2.681197    1.894893
H      0.411779   -2.421089   -1.734891
H      4.262758    3.455138   -0.547253
H      1.752293   -3.848863    0.595937
H      5.037732    1.477010   -1.627481
H     -0.688045   -3.152143    1.542132
H      3.946101   -0.221879    0.191201
H     -0.973588   -0.787594    1.188153
H     -9.176849   -0.193977    1.930582
H     -0.863347    4.839557   -3.792919
H     -3.707348    4.678763   -2.103699
H     -5.901861   -4.400196    2.262686
H      4.214510    4.757979    1.065822
H      2.209298   -4.160442   -1.654198
H      6.517192    3.117186   -1.368098
H      0.544355   -5.390399   -0.126760
H      5.926049   -0.082252    0.399255
H      0.385045   -1.459433    2.567391
H      0.813721   -0.191401    0.000000
H     -0.810575   -0.193580   -0.000000
H     -0.823509   -0.186216   -0.000000
H      0.824675   -0.185393    0.000000
H     -0.826493   -0.179179   -0.000000
H      0.829807   -0.177019    0.000000
