40

C      5.366083    1.197213   -0.345553
C      4.989749   -0.113422   -0.999364
C     -4.487897    0.577471    0.207582
C     -3.746786    0.028730    1.401488
C     -3.571111    0.524635   -0.994904
C     -2.874720   -1.103467    0.919583
C     -2.129955    0.701235   -0.530684
C     -0.614440   -0.271684    1.238782
C      0.655305    0.336991    0.755056
C     -1.678342   -0.479354    0.226284
C      1.285996   -0.552065   -0.326233
C      2.541982    0.071817   -0.789334
N      1.595065   -1.830165    0.267533
O      2.555233    1.197430   -1.347305
O      3.736784   -0.590477   -0.609198
Cl     0.684246    0.000000    0.000000
H      5.829182    0.977795    0.642335
H      4.521825    1.891208   -0.282493
H      6.149223    1.660638   -1.006944
H      5.039658    0.019524   -2.105799
H      5.747659   -0.866794   -0.665046
H     -5.385218   -0.089183    0.049208
H     -4.858758    1.586658    0.423757
H     -4.387415   -0.230075    2.244646
H     -3.042538    0.842029    1.735233
H     -3.714429   -0.401065   -1.556897
H     -3.846508    1.384057   -1.673764
H     -3.415107   -1.808968    0.264040
H     -2.515062   -1.653357    1.813207
H     -2.109043    1.660691    0.016501
H     -1.532550    0.839712   -1.462019
H     -0.362865   -1.258877    1.682241
H     -1.000276    0.352140    2.075774
H      1.380316    0.311372    1.598228
H      0.590088    1.375873    0.430851
H     -1.332088   -1.256820   -0.518122
H      0.565513   -0.634725   -1.164353
H      1.565656   -2.595008   -0.469450
H      2.489790   -1.801714    0.773107
H     -0.684246    0.000000    0.000000
