38

C     -1.945588    1.783099    1.422743
C     -2.938832    0.331847   -2.200986
C      0.045964   -1.854886   -0.785042
C     -2.346690    0.663004    0.514214
C     -2.100693   -0.623836   -1.395363
C      4.141253    0.708949   -0.622629
C      3.043368    1.537452   -0.578696
C      4.051159   -0.554580   -0.070074
C      1.869867    1.086815    0.017964
C      2.899415   -0.991914    0.515664
C     -0.584903   -0.932695    0.280771
C      1.771893   -0.165354    0.568818
C      0.505788   -0.613564    1.226818
N     -1.289301    0.152712   -0.368180
O      0.177232    0.155348    2.316102
Cl     0.686609    0.000000    0.000000
H     -0.950217    2.205266    1.200822
H     -2.701034    2.658258    1.291635
H     -2.065106    1.542846    2.497006
H     -2.816097    0.156880   -3.289809
H     -4.037188    0.131111   -2.008381
H     -2.768479    1.387938   -1.986956
H     -0.639542   -2.640614   -1.113626
H      0.873451   -2.389617   -0.258710
H      0.491758   -1.228853   -1.556354
H     -2.694140   -0.215758    1.148246
H     -3.259789    0.940612   -0.083996
H     -2.715495   -1.305946   -0.798467
H     -1.387170   -1.083050   -2.094281
H      5.073762    1.027732   -1.081254
H      3.102688    2.534029   -1.007098
H      4.919902   -1.209967   -0.106635
H      1.035468    1.764045    0.032376
H      2.830832   -1.976202    0.949838
H     -1.367574   -1.582378    0.753697
H      0.781687   -1.644323    1.689901
H      0.992355    0.245594    2.879530
H     -0.686609    0.000000    0.000000
