82

C      3.519268    0.586404    2.960592
C     -3.349040    2.509182   -0.941678
C     -3.642780    3.875284   -1.035933
C     -4.957491    2.263334    0.738260
C     -4.079835   -4.516006    1.375452
C     -5.344182   -2.506153    1.633858
C      2.386197   -1.321314   -1.749039
C      4.241812   -0.562137    2.251275
C     -3.978532    1.687352   -0.076775
C     -5.198336   -3.854973    1.854605
C     -4.596112    4.429731   -0.239466
C     -5.260070    3.604802    0.659341
C     -3.151460   -3.777477    0.689185
C     -4.404823   -1.755411    0.938653
C      1.627364   -0.050855   -1.437369
C     -3.292149   -2.404421    0.460183
C      5.406565    0.051516    1.531476
C      1.071794    0.577721   -2.699143
C     -2.341127   -1.688088   -0.228990
C      6.159980   -0.923909    0.653536
C      0.778626    2.018520   -2.301036
C      5.162541   -1.952191    0.166674
C      0.187391    2.052810   -0.909630
C     -3.646951    0.276839    0.059460
C     -2.527968   -0.308201   -0.430481
C      3.813275   -1.255848    0.091502
C     -0.331260    0.771213   -0.448612
O     -6.158600   -4.590909    2.558242
O     -4.897452    5.783232   -0.321821
O     -6.222389    4.192690    1.455360
O     -2.014194   -4.402540    0.191174
O      6.329732    0.471387    2.516347
O      1.887340    0.468679   -3.791038
O     -1.328826   -2.285553   -0.660720
O      6.620396   -0.259077   -0.501833
O     -0.062935    2.551830   -3.264955
O      5.561584   -2.430351   -1.061759
O      1.231595    2.500551   -0.052564
O      2.903174   -1.960167   -0.655892
O      3.309079   -1.117444    1.381386
O     -4.519632   -0.500041    0.721413
O      0.553478   -0.304429   -0.607020
O     -1.521910    0.306823   -1.117415
O     -0.005524    0.376579   -0.000000
O     -0.003798    0.377207   -0.000000
O     -0.005942    0.361833   -0.000000
H      2.851690    1.051282    2.206359
H      2.943007    0.201645    3.841583
H      4.266191    1.349697    3.242053
H     -2.603242    2.155526   -1.631319
H     -3.094619    4.479990   -1.755910
H     -5.473488    1.632678    1.433589
H     -3.982383   -5.580148    1.558530
H     -6.223593   -2.018291    2.017344
H      1.630451   -2.023675   -2.197030
H      3.107880   -1.091659   -2.536844
H      4.531938   -1.261882    3.061304
H      2.314578    0.631389   -0.903872
H      5.101838    0.955638    1.000055
H      0.077181    0.105172   -2.911635
H      6.998942   -1.421439    1.189057
H      1.733960    2.562572   -2.345466
H      5.157090   -2.783756    0.907548
H     -0.544624    2.853821   -0.868932
H      4.035054   -0.232759   -0.276307
H     -0.573700    0.774295    0.625404
H     -6.052668   -5.575156    2.718644
H     -4.412513    6.359623   -0.969839
H     -6.737505    3.612546    2.135981
H     -1.886507   -5.378031    0.344620
H      7.142687    0.853346    2.115165
H      1.395898    0.124723   -4.589214
H      6.598208    0.711547   -0.299375
H     -0.694988    1.830561   -3.532738
H      5.591159   -3.406169   -1.140774
H      0.878939    2.274511    0.866359
H     -0.813459   -0.190222   -0.000000
H      0.818983   -0.186356    0.000000
H     -0.807572   -0.189955   -0.000000
H      0.811370   -0.187252    0.000000
H      0.828015   -0.178975    0.000000
H     -0.822073   -0.182858   -0.000000
