40

C      5.123511    2.126479   -0.030184
C      4.633220    0.816581   -0.611553
C     -3.791136    0.857364   -0.289895
C     -2.655933    0.526439   -1.218918
C     -3.641445    0.389432    1.108124
C     -2.025968   -0.808798   -0.921749
C     -3.000181   -0.938611    1.303560
C     -0.780261    0.059275    1.067749
C      0.551611    0.160012    0.424912
C     -1.697525   -0.981187    0.538127
C      1.441407   -1.017831    0.470157
C      2.706057   -0.660878   -0.227385
N      0.964691   -2.232710   -0.051925
O      3.143283   -1.424322   -1.113384
O      3.427139    0.484957    0.060057
Cl     0.686413    0.000000    0.000000
H      5.003618    2.934133   -0.793915
H      4.567184    2.398305    0.887044
H      6.207258    2.037319    0.193957
H      5.409029    0.022712   -0.445875
H      4.413307    0.930610   -1.690263
H     -4.776352    0.541697   -0.699592
H     -3.849587    1.985886   -0.261987
H     -1.907788    1.342054   -1.297531
H     -3.104574    0.435207   -2.245360
H     -4.699186    0.279095    1.517518
H     -3.180485    1.175972    1.748697
H     -2.719036   -1.607072   -1.212615
H     -1.109008   -0.887911   -1.544159
H     -2.860854   -1.109594    2.384340
H     -3.675014   -1.723010    0.856676
H     -0.622586   -0.091437    2.176684
H     -1.315997    1.054083    1.032044
H      0.444563    0.515639   -0.629830
H      1.085871    1.018706    0.931677
H     -1.239100   -2.007659    0.616154
H      1.715698   -1.214500    1.552728
H      0.851322   -2.330325   -1.046181
H      0.963248   -3.056112    0.537871
H     -0.686413    0.000000    0.000000
