64

C      2.144777    1.315643   -2.582738
C      4.739702    0.241969   -2.217352
C     -1.022392    2.257351    1.815876
C     -3.572550    2.483680    0.325203
C     -1.096911    3.098424   -1.180204
C      3.569143   -0.119908    3.516400
C      3.248494    1.177688    3.127897
C      3.228539   -1.132138    2.643874
C     -3.193977   -2.450681   -1.404092
C     -1.794187   -2.638107    1.318465
C      2.622078    1.452815    1.934012
C      2.599945   -0.868386    1.443415
C     -3.728792   -1.361082   -0.607524
C     -2.253678   -1.246451    1.440411
C     -1.823497   -2.335764   -1.951627
C     -0.864820   -3.029861    0.270536
C      2.673809    0.947017   -1.219450
C      2.303160    0.433134    1.102836
C     -2.884458   -0.572083    0.305549
C     -0.721018   -2.195294   -0.945899
C      1.596498    0.625053   -0.226396
C     -1.794242    0.249300   -0.419568
B     -0.518579   -0.633585   -0.497326
N      3.608483   -0.134094   -1.400592
O      0.797482   -0.358590   -0.397945
Si    -1.737343    1.962243    0.141895
H      2.974941    1.856112   -3.101254
H      1.307189    2.041218   -2.553082
H      1.942639    0.423281   -3.209010
H      4.581655   -0.037621   -3.282027
H      5.600710   -0.366349   -1.877573
H      5.030382    1.307507   -2.087670
H     -1.795907    2.066505    2.583676
H     -0.625026    3.287730    1.896780
H     -0.243737    1.492203    1.989646
H     -3.959042    2.152868    1.295721
H     -3.581765    3.593493    0.323741
H     -4.137788    2.143887   -0.550442
H     -1.739159    4.010114   -1.335086
H     -0.118621    3.503954   -0.853625
H     -0.997058    2.520869   -2.118118
H      4.062077   -0.326686    4.457166
H      3.516141    1.968812    3.813351
H      3.460490   -2.171054    2.904877
H     -3.275014   -3.480692   -0.938076
H     -3.863720   -2.579013   -2.315103
H     -2.711711   -3.302458    1.373224
H     -1.303023   -2.879394    2.319066
H      2.376443    2.471124    1.640830
H      2.340262   -1.705890    0.770828
H     -4.587266   -1.752880    0.016258
H     -4.245494   -0.619454   -1.292096
H     -2.992600   -1.245103    2.303264
H     -1.436849   -0.570385    1.837371
H     -1.633211   -3.187560   -2.633662
H     -1.803069   -1.426261   -2.621962
H     -1.154079   -4.064919   -0.090505
H      0.183328   -3.197757    0.668406
H      3.258874    1.818468   -0.862707
H     -3.556438    0.242491    0.711432
H      0.206853   -2.492514   -1.469835
H      1.039162    1.598828   -0.034491
H     -2.205474    0.275905   -1.485320
H      3.959241   -0.537672   -0.529649
