39

C      2.914796    1.233420   -0.725091
C      3.379168   -1.088425   -0.075645
C     -3.367540    1.121750   -0.623647
C     -2.623723   -0.682814    1.732473
C      0.542212    1.189054    1.151818
C     -0.908237    1.046311    1.369911
C     -0.039479    0.157553   -1.482223
C     -1.461056   -1.639499   -1.076137
C      2.696240    0.216723    0.356537
C     -2.302598    0.380736   -0.488693
C     -1.519479   -0.189056   -1.601998
C      1.251453   -0.029659    0.683176
C      0.494429   -0.702211   -0.392237
C     -0.783431   -1.215616    0.244950
C     -1.618974   -0.071409    0.742337
H      2.625239    2.238419   -0.388981
H      4.031312    1.251815   -0.900693
H      2.461605    0.928847   -1.691265
H      3.178872   -1.323854   -1.123076
H      3.106750   -1.915498    0.605502
H      4.471567   -0.927674    0.022730
H     -3.899009    1.510658    0.239914
H     -3.773714    1.385531   -1.594257
H     -2.993092   -1.652228    1.389271
H     -3.444004    0.052468    1.932705
H     -2.052947   -0.846107    2.687332
H      1.068142    1.521291    2.097799
H      0.773276    2.013969    0.424824
H     -1.399976    2.018129    1.058789
H     -1.096642    1.033806    2.483922
H      0.112053    1.243701   -1.341161
H      0.404668   -0.088578   -2.473853
H     -0.774142   -2.251032   -1.657448
H     -2.451195   -2.045452   -0.904524
H      3.277440    0.556063    1.241670
H     -1.928389   -0.104267   -2.579255
H      1.265159   -0.743449    1.563654
H      1.033742   -1.549662   -0.869347
H     -0.650495   -2.033754    0.926324
