72

C     -2.842837   -4.641745    1.535112
C     -2.706574    4.967155   -2.217300
C      2.457732    3.497131    3.568049
C      2.936040   -2.850569   -4.268636
C     -2.147430   -3.974920    2.506119
C     -3.414787   -3.932644    0.519668
C     -2.897420    3.927177   -3.090236
C     -2.655749    4.677662   -0.871641
C      2.116489    2.355464    4.261042
C      2.835547    3.380347    2.251399
C      3.089301   -3.292433   -2.973545
C      2.855379   -1.493337   -4.485654
C     -2.031093   -2.603062    2.451328
C     -3.285624   -2.547736    0.482609
C     -3.038205    2.618214   -2.670686
C     -2.795680    3.359364   -0.420385
C      2.138993    1.102987    3.687542
C      2.854899    2.122913    1.686317
C      3.160392   -2.403443   -1.921249
C      2.928847   -0.624333   -3.418289
C     -3.669850    0.411763    1.478333
C     -4.191601    0.707972    0.144707
C      3.905989   -0.716355    1.184825
C      4.291055   -0.202451   -0.120167
C     -0.718441   -0.959702   -1.047094
C      0.494577   -1.449053   -0.301553
C     -2.590693   -1.840457    1.446030
C     -2.986611    2.328678   -1.313223
C      2.513510    0.986850    2.382825
C      3.082249   -1.055992   -2.117438
C     -2.422898   -0.397709    1.456375
C     -3.136905    0.929716   -0.874369
C      2.572210   -0.305233    1.651109
C      3.147558   -0.051593   -1.037798
P     -1.593194    0.286598   -0.042054
P      1.655376   -0.079005    0.060716
H     -2.912949   -5.730176    1.613054
H     -2.594964    5.993323   -2.528564
H      2.436047    4.483826    4.033407
H      2.880341   -3.560760   -5.099626
H     -1.694284   -4.558569    3.314302
H     -3.968734   -4.423114   -0.260733
H     -2.935273    4.171990   -4.147814
H     -2.506313    5.481249   -0.163382
H      1.822764    2.499261    5.305771
H      3.115040    4.267603    1.665614
H      3.156723   -4.367064   -2.768162
H      2.734563   -1.151756   -5.511165
H     -1.463243   -2.130041    3.256346
H     -3.741484   -2.022172   -0.322565
H     -3.187329    1.803082   -3.350143
H     -2.753810    3.141565    0.639384
H      1.870545    0.216369    4.238011
H      3.160898    2.098038    0.633966
H      3.284524   -2.740644   -0.890119
H      2.856704    0.440678   -3.674427
H     -3.493286    1.353286    2.045208
H     -4.431484   -0.174106    2.037275
H     -4.761087    1.687713    0.215143
H     -5.001686    0.004002   -0.206461
H      3.967156   -1.846055    1.227017
H      4.710604   -0.411433    1.924153
H      4.953272    0.690394   -0.023940
H      4.980517   -0.971539   -0.595959
H     -1.349733   -1.817903   -1.360168
H     -0.379166   -0.472992   -1.984644
H      0.146712   -1.882171    0.678935
H      0.939770   -2.308139   -0.842449
H     -1.779702   -0.107358    2.325325
H     -3.276255    0.259676   -1.775350
H      2.133207   -1.130001    2.267995
H      3.170843    0.975715   -1.478022
