64

C      2.397837    2.125735    1.063985
C      4.045150    0.567689    2.673995
C     -3.800750   -1.575298    1.439775
C     -1.226075   -2.583347    0.179821
C     -1.222442   -1.480031    2.967346
C      3.678746   -3.720760   -1.168040
C      2.983902   -3.467197    0.000486
C      3.808466   -2.705461   -2.080448
C     -2.824625    0.806405   -2.515627
C     -2.059384    3.255834   -0.866087
C      2.426044   -2.228368    0.262431
C      3.252812   -1.456768   -1.829298
C     -3.236433    0.265324   -1.200290
C     -2.954817    2.482521   -0.029905
C     -1.424368    1.038768   -2.804123
C     -0.695823    2.797127   -1.156550
C      2.883311    0.745238    0.673472
C      2.564275   -1.218206   -0.662891
C     -2.902428    1.003517    0.022044
C     -0.479437    1.445136   -1.728567
C      1.953977    0.130943   -0.373128
C     -1.621042    0.448006    0.599692
B     -0.445152    0.442657   -0.502368
N      3.020630   -0.070980    1.839528
O      0.732795   -0.061251    0.082063
Si    -1.957479   -1.261902    1.239562
H      2.289175    2.732025    0.137128
H      3.106073    2.632825    1.747876
H      1.397699    2.041574    1.556914
H      3.618001    1.395118    3.286253
H      4.854156    1.017139    2.063498
H      4.549809   -0.196890    3.330454
H     -3.871330   -2.525482    2.034866
H     -4.287593   -1.803403    0.469958
H     -4.290716   -0.783129    2.018672
H     -0.328366   -3.064572    0.654764
H     -1.960710   -3.405256    0.064398
H     -0.970025   -2.244993   -0.857803
H     -1.619477   -0.661851    3.576524
H     -1.682515   -2.422368    3.367932
H     -0.132547   -1.543648    2.901395
H      4.124759   -4.677610   -1.398383
H      2.907494   -4.300501    0.692212
H      4.351854   -2.858099   -3.023868
H     -3.199346    0.030604   -3.264837
H     -3.529439    1.662621   -2.747919
H     -1.911669    4.266654   -0.351073
H     -2.506199    3.614373   -1.846804
H      1.891267   -2.094712    1.201618
H      3.366750   -0.684640   -2.552625
H     -2.832661   -0.772231   -1.134013
H     -4.356021    0.103919   -1.261163
H     -2.905430    2.823338    1.050984
H     -4.022059    2.746902   -0.312387
H     -1.340045    1.837521   -3.600388
H     -0.958362    0.134727   -3.302462
H     -0.098157    2.857201   -0.202666
H     -0.209420    3.557815   -1.825083
H      3.905484    0.887169    0.245227
H     -3.674917    0.724015    0.794014
H      0.508248    1.469959   -2.260171
H      2.116353    0.738944   -1.270657
H     -1.350056    1.089344    1.462657
H      2.152249   -0.049733    2.428082
