34

C     -3.346241    0.012073   -1.772415
C      2.929138    1.783139   -0.964395
C     -3.950773    1.141350   -1.220966
C      3.926751    0.934506   -1.363373
C     -2.253610   -0.547845   -1.181992
C      1.826567    1.329664   -0.266920
C     -3.364186    1.648278   -0.051213
C      3.803862   -0.397029   -1.051497
C     -1.648035   -0.062979   -0.003431
C      1.688596   -0.032232    0.068522
C     -2.271031    1.076360    0.529069
C      2.721315   -0.849566   -0.361060
C     -0.669969   -0.849974    0.697019
C      0.679006   -0.460396    1.010622
N     -1.260255   -1.580091    1.854433
N      1.275351   -1.520240    1.853537
O     -1.748013    1.622454    1.683084
O      2.537647   -2.210700   -0.028485
H     -3.740967   -0.441133   -2.668703
H      3.034513    2.859462   -1.195994
H     -4.794700    1.561781   -1.695847
H      4.807278    1.313187   -1.916665
H     -1.831860   -1.426158   -1.622485
H      1.053715    2.035880    0.056178
H     -3.829890    2.552305    0.383812
H      4.570838   -1.057259   -1.364552
H     -0.512590   -1.786854   -0.014279
H      0.675700    0.423558    1.791894
H     -2.036011   -2.148537    1.440955
H     -1.495765   -0.993683    2.650383
H      1.464242   -1.175757    2.830807
H      0.715498   -2.367783    1.911486
H     -2.195949    2.474152    2.056202
H      3.239826   -2.859935   -0.324018
