81

C     -8.665556   -3.298367    0.232362
C      7.326886   -3.018453    3.718869
C      0.230915    8.488048   -1.886352
C     -3.389934   -5.101393    0.107221
C      6.377362   -4.688361   -1.414340
C     -3.622880    4.725431   -0.728448
C     -1.948525   -0.237177    0.826062
C     -3.217384    0.030711    0.924698
C     -0.945204    0.832313    1.069733
C     -5.547057   -0.527850    0.738116
C      3.769045   -1.642934    1.654300
C      1.365352    4.532583   -0.675480
C     -6.551199   -1.449113    0.580780
C      4.909014   -2.067286    2.349946
C      1.066843    5.816877   -1.069042
C     -3.962785   -2.318812    0.507378
C      0.485441   -0.045426   -0.729562
C      4.449727   -2.911566   -0.199232
C     -0.891120    3.960139   -0.495655
C      2.651676    0.803379    0.042975
C     -4.224382   -0.985350    0.699331
C      3.517641   -2.059579    0.360393
C     -0.222189    1.157376   -0.187522
C      0.430720    3.570007   -0.378550
C      1.689630   -0.359269    0.115598
C     -6.275068   -2.782506    0.391707
C      5.819509   -2.914068    1.772417
C     -0.258721    6.175273   -1.176142
C     -4.984040   -3.238252    0.350791
C      5.579092   -3.337475    0.478824
C     -1.255966    5.248817   -0.890465
C      2.326187   -1.635425   -0.402401
C      0.852599    2.229788    0.057814
O      2.729321   -1.344854   -1.734790
O     -7.319332   -3.666896    0.243418
O      6.961701   -3.371238    2.401161
O     -0.653630    7.448488   -1.565289
O     -4.700101   -4.576964    0.158969
O      6.476986   -4.182793   -0.118994
O     -2.571439    5.649114   -1.009472
O      1.995502    1.835076   -0.674266
H     -9.251945   -4.112371   -0.248134
H     -9.072304   -3.205894    1.272247
H     -8.880112   -2.355377   -0.298601
H      7.026543   -1.968629    3.884688
H      8.417000   -3.163811    3.888700
H      6.757303   -3.649024    4.461420
H     -0.395578    9.391472   -2.131386
H      0.885821    8.766375   -1.021241
H      0.889957    8.250543   -2.731293
H     -3.406629   -6.215271    0.269679
H     -2.923960   -4.812131   -0.840311
H     -2.810829   -4.652925    0.932678
H      5.989350   -3.862394   -2.066606
H      5.600022   -5.485667   -1.472871
H      7.317709   -5.125233   -1.794146
H     -3.831631    4.658275    0.343864
H     -4.535751    5.125584   -1.222513
H     -3.396794    3.778310   -1.235091
H     -1.571389   -1.208441    0.576917
H     -3.480666    1.062471    1.187132
H     -1.425483    1.720742    1.541097
H     -0.272415    0.429340    1.871983
H     -5.765711    0.512025    0.880761
H      3.089234   -0.988310    2.145170
H      2.421259    4.275540   -0.600285
H     -7.572796   -1.079743    0.615065
H      5.084105   -1.726029    3.359606
H      1.830110    6.532512   -1.290066
H     -2.935411   -2.654836    0.477970
H      0.900571    0.266024   -1.737595
H     -0.184482   -0.924677   -0.856547
H      4.245329   -3.233044   -1.223415
H     -1.690330    3.260504   -0.273040
H      3.589910    0.573751   -0.474730
H      2.820583    1.260966    1.063486
H     -0.950001    1.538987   -0.950248
H      1.383870   -0.471157    1.170284
H      1.538305   -2.401484   -0.495467
H      1.066381    2.254988    1.156196
H      3.696219   -1.103976   -1.686265
