100

C     -6.637299    5.778931    1.416776
C     10.020230    4.965707   -1.966056
C    -10.710453    1.981390    1.592862
C      9.114637    2.363749    2.879006
C     -2.336261   -0.214459    4.730804
C      2.484579   -6.009342   -3.056501
C     -6.256193    2.206021   -0.738972
C      6.725990    2.433472   -1.610428
C     -6.395055    3.358553   -0.030823
C      7.817899    3.265573   -1.709674
C     -7.077795    0.020627   -1.495345
C      5.322533    0.864800   -0.221603
C     -4.570009   -1.961259    0.547992
C      3.597177   -1.441087   -1.337535
C     -2.125264   -2.351566    0.225795
C      1.385996   -1.978099   -0.400832
C     -8.390946    1.494360    0.045934
C      7.344080    1.979553    0.637022
C     -2.853134   -1.326423    2.240572
C      2.467907   -3.575272   -1.807196
C     -6.283641   -2.291514   -1.541160
C      6.888611   -1.076413    0.155458
C     -7.259335    1.253766   -0.709092
C      6.481011    1.772320   -0.406459
C     -3.167129   -1.868910    1.012412
C      2.458741   -2.354436   -1.179393
C     -6.450373   -1.040553   -0.658552
C      5.728154   -0.514623   -0.637679
C     -5.003895   -0.778737   -0.294429
C      4.650355   -1.551752   -0.284638
C     -0.821072   -2.306473    0.626168
C      0.264970   -2.793974   -0.202740
C     -7.522498    3.593353    0.718376
C      8.658089    3.441969   -0.631195
C     -8.539994    2.670566    0.772903
C      8.446667    2.801515    0.581731
C     -1.555983   -1.251143    2.702896
C      1.381213   -4.406531   -1.635082
C     -0.572916   -1.743222    1.884239
C      0.294676   -4.012062   -0.838753
C     -4.385066   -0.990494   -1.659856
C      5.407027   -2.795011   -0.253472
O      0.746853   -1.702093    2.280328
O     -0.730872   -4.897494   -0.722840
O     -3.552462   -0.317335   -2.273252
O      5.052158   -4.010977   -0.382315
O     -7.624382    4.785035    1.425815
O      9.756083    4.288692   -0.756283
O     -9.669466    2.933205    1.539258
O      9.319601    3.010297    1.638664
O     -1.247987   -0.694399    3.961493
O      1.380483   -5.639687   -2.262896
O     -4.996476   -2.173733   -2.088769
O      6.763861   -2.495397   -0.035666
H     -6.353396    6.048214    0.360982
H     -5.737375    5.442831    1.962425
H     -7.085366    6.690663    1.887237
H      9.126219    5.530365   -2.277522
H     10.228133    4.225968   -2.784037
H     10.880769    5.628003   -1.788547
H    -10.302876    1.066857    2.113035
H    -11.020489    1.669049    0.580412
H    -11.547492    2.377150    2.199997
H      8.858631    1.287293    2.757607
H     10.060198    2.413927    3.478929
H      8.354824    2.922193    3.472287
H     -2.032104   -0.003044    5.781270
H     -2.762939    0.708452    4.325840
H     -3.112159   -1.020564    4.808483
H      3.338177   -6.221310   -2.377465
H      2.294578   -6.951792   -3.612925
H      2.740853   -5.261595   -3.836421
H     -5.374775    1.991766   -1.341394
H      6.069582    2.293747   -2.452241
H     -5.608334    4.100097   -0.056862
H      8.019951    3.787741   -2.645890
H     -6.512166    0.202364   -2.433484
H     -8.092097   -0.310353   -1.828212
H      4.528579    1.213231   -0.941157
H      4.919506    0.921757    0.791876
H     -4.625947   -2.883871   -0.104747
H     -5.258611   -2.167499    1.386169
H      4.089849   -1.524939   -2.330029
H      3.187632   -0.397758   -1.278568
H     -2.404271   -2.750752   -0.725464
H      1.361983   -1.009444    0.104787
H     -9.181191    0.756030    0.076060
H      7.175557    1.479161    1.588826
H     -3.666127   -0.949468    2.852805
H      3.295296   -3.897930   -2.435827
H     -6.412376   -3.212536   -0.948028
H     -7.078823   -2.317361   -2.316359
H      7.834860   -0.687729   -0.227443
H      6.690521   -0.825727    1.225442
H     -7.012058   -1.275456    0.252491
H      5.948364   -0.573273   -1.701082
H     -4.795923    0.193465    0.127358
H      4.290617   -1.233419    0.721910
H      1.033102   -1.308323    3.184040
H     -1.574512   -4.865167   -0.222456
