81

C      4.840088   -5.577163   -3.192346
C     -4.533354   -5.751476   -2.427104
C      1.543855    8.255569   -1.510274
C      3.812108   -5.633740    2.205590
C     -1.151144   -4.024996    1.625082
C     -1.898016    7.439106    2.758588
C      2.065719    0.184485    0.206605
C      2.374096   -0.963780    0.777693
C      1.508796    1.261781    1.035419
C      3.175984   -2.077303   -1.244387
C     -3.938263   -1.582463   -1.683266
C      0.840829    4.385467   -0.137652
C      3.712692   -3.180265   -1.921183
C     -4.136864   -2.923277   -1.931244
C      1.069905    5.671352   -0.588335
C      3.229613   -3.285910    0.763536
C     -0.756645    0.487934    0.708821
C     -2.468092   -2.119126    0.068214
C     -0.623797    5.315587    1.505921
C     -2.298313    2.367375    0.546375
C      2.929398   -2.119556    0.103833
C     -3.087313   -1.139263   -0.663608
C      0.145687    1.709788    0.606156
C     -0.011433    4.199474    0.916896
C     -2.199036    0.831155    0.631483
C      4.002691   -4.334018   -1.232833
C     -3.506832   -3.894636   -1.186921
C      0.459000    6.747145    0.004347
C      3.760486   -4.391753    0.122441
C     -2.668620   -3.474080   -0.182492
C     -0.411804    6.588879    1.077796
C     -2.972248    0.297697   -0.497885
C     -0.304894    2.841488    1.444482
O     -4.281650    0.831296   -0.448448
O      4.532392   -5.458157   -1.834270
O     -3.682249   -5.250761   -1.407374
O      0.662430    8.063852   -0.419455
O      4.049406   -5.550634    0.826380
O     -2.026772   -4.428072    0.575987
O     -1.029269    7.672725    1.677397
O     -1.678078    2.826375    1.705672
H      5.651994   -6.338391   -3.356187
H      3.982780   -5.910076   -3.812867
H      5.231827   -4.641921   -3.639352
H     -5.524412   -5.213032   -2.392476
H     -4.144957   -5.588758   -3.438970
H     -4.782920   -6.814021   -2.215812
H      1.646250    9.360656   -1.690812
H      2.548494    7.824501   -1.305900
H      1.121366    7.764384   -2.408147
H      4.221040   -4.777691    2.774725
H      2.701868   -5.679725    2.342238
H      4.269456   -6.559364    2.612291
H     -0.678306   -4.899384    2.108277
H     -0.372288   -3.358997    1.165803
H     -1.679712   -3.433658    2.403021
H     -2.877750    7.026258    2.438755
H     -2.130822    8.448825    3.194650
H     -1.432562    6.856570    3.569774
H      2.226988    0.306016   -0.842577
H      2.201301   -1.074480    1.864735
H      2.215654    2.098978    1.029670
H      1.475856    0.926542    2.114017
H      2.986319   -1.226192   -1.876807
H     -4.450326   -0.832328   -2.288730
H      1.357382    3.549219   -0.641887
H      3.904936   -3.144164   -2.978587
H     -4.796352   -3.281099   -2.721748
H      1.733532    5.806442   -1.408436
H      3.047351   -3.352044    1.826803
H     -0.480228   -0.150000   -0.150633
H     -0.474722   -0.048182    1.632371
H     -1.821153   -1.820854    0.854104
H     -1.303315    5.138562    2.351146
H     -3.382946    2.591527    0.593098
H     -1.818014    2.691885   -0.376738
H      0.171247    2.001234   -0.458856
H     -2.643489    0.599721    1.640408
H     -2.539178    0.745393   -1.434599
H      0.181189    2.814759    2.465105
H     -4.593865    0.774788    0.502125
