81

C     -4.290516    5.472142   -4.674636
C      2.466303   -8.291254    0.364242
C     -4.280276    3.852647    2.625341
C     -6.440359    0.832435   -2.705859
C      6.359373   -4.463474   -0.461900
C     -0.224563    5.607943   -0.745125
C     -0.044561    0.560171   -1.525103
C     -1.309595    0.361924   -1.831016
C      0.851989   -0.438560   -0.908114
C     -1.673480    2.550531   -2.934212
C      2.350026   -4.515826    2.486961
C     -0.839772    1.481705    2.095504
C     -2.499794    3.515033   -3.499335
C      2.365778   -5.748699    1.813767
C     -1.965187    2.276817    2.255662
C     -3.533864    1.200221   -2.540255
C      2.046330   -1.376202    0.983747
C      4.301832   -3.887421    1.339644
C      0.057211    3.077396    0.602162
C      2.114966   -0.083431    3.090841
C     -2.147083    1.373262   -2.441560
C      3.310719   -3.572500    2.261004
C      1.037090   -0.307281    0.565600
C      0.192636    1.893642    1.248916
C      2.053583   -1.478439    2.498543
C     -3.846178    3.325457   -3.586207
C      3.345868   -6.065661    0.897553
C     -2.092323    3.475368    1.594723
C     -4.376872    2.127638   -3.087384
C      4.300457   -5.097965    0.690588
C     -1.078715    3.883083    0.762968
C      3.315304   -2.227840    2.927429
C      1.420329    1.004952    1.108295
O      3.286287   -2.440841    4.315234
O     -4.712558    4.261218   -4.144703
O      3.403034   -7.266601    0.209571
O     -3.239300    4.262134    1.769915
O     -5.734119    1.955756   -3.169336
O      5.333241   -5.385157   -0.246025
O     -1.199167    5.078060    0.107440
O      2.090363    0.951058    2.264522
H     -4.277970    5.384342   -5.806740
H     -3.300184    5.781926   -4.353552
H     -5.041194    6.295300   -4.511601
H      2.907799   -9.301304    0.194519
H      1.718679   -8.169392   -0.479232
H      1.853378   -8.254878    1.276241
H     -4.660498    2.873264    2.244733
H     -3.827272    3.632354    3.638543
H     -5.047186    4.609053    2.777088
H     -5.829992   -0.064463   -2.881661
H     -6.611269    0.979809   -1.605232
H     -7.420696    0.690355   -3.183675
H      7.060167   -4.921041   -1.195056
H      5.894231   -3.535540   -0.848080
H      6.869009   -4.302531    0.515794
H     -0.343253    5.255108   -1.761521
H      0.780864    5.440479   -0.302385
H     -0.376921    6.715791   -0.727692
H      0.388377    1.533714   -1.747142
H     -1.746929   -0.627383   -1.600519
H      1.851757   -0.512735   -1.429531
H      0.377794   -1.438999   -1.168692
H     -0.621572    2.788678   -2.907549
H      1.563205   -4.306026    3.197543
H     -0.721942    0.542118    2.604552
H     -2.024864    4.417693   -3.868260
H      1.579891   -6.464108    2.020469
H     -2.776663    1.962030    2.913267
H     -3.942287    0.277745   -2.156196
H      1.846435   -2.353275    0.566384
H      3.045070   -1.014891    0.662715
H      5.079841   -3.133158    1.155794
H      0.864608    3.401520   -0.057984
H      1.283027   -0.020469    3.852134
H      3.040009   -0.009890    3.769932
H      0.044578   -0.665477    1.058404
H      1.162691   -2.001950    2.838164
H      4.215791   -1.642345    2.702114
H      2.061903    1.513961    0.330454
H      2.607152   -3.088824    4.556333
