39

C      3.477082    0.510441   -0.920103
C      2.993763   -1.265447    0.682785
C     -2.819119    1.402685    0.019660
C     -2.369178   -1.259973   -1.509998
C      0.786506    1.468045   -0.736781
C     -0.639892    1.232635   -1.121827
C     -1.706989   -0.369973    2.034779
C      2.386648   -0.430273   -0.447014
C      1.335874    0.460896    0.231523
C     -0.828157    0.631182    1.307926
C     -1.714836   -1.473163    1.003768
C      0.336238   -0.307958    0.986896
C     -0.416352   -1.353924    0.215555
C     -1.500628    0.700675   -0.026765
C     -1.670246   -0.799857   -0.293087
H      3.411522    1.510935   -0.435162
H      4.499174    0.126009   -0.634730
H      3.463934    0.640551   -2.018765
H      4.025948   -1.589418    0.417068
H      3.116621   -0.550223    1.541358
H      2.337702   -2.119440    0.942847
H     -2.646849    2.415063    0.441570
H     -3.590576    0.852326    0.592490
H     -3.173880    1.542059   -1.015541
H     -2.661213   -2.310770   -1.392961
H     -1.765677   -1.192061   -2.442427
H     -3.306858   -0.667212   -1.637450
H      1.432391    1.445838   -1.640581
H      0.862952    2.519057   -0.351038
H     -0.644179    0.574294   -2.016334
H     -1.090174    2.200419   -1.475912
H     -2.700035    0.025444    2.260517
H     -1.213502   -0.676598    2.972528
H      1.960747   -1.041386   -1.240591
H      1.938408    1.039082    0.980318
H     -0.587302    1.520606    1.810909
H     -2.169242   -2.427447    1.194993
H      0.778105   -0.738091    1.887750
H      0.071267   -2.245026   -0.168174
