29

C     -3.640862    0.574479    0.773985
C      3.714651    0.143201    1.020397
C      3.272338   -1.108360    0.681660
C      2.970584    1.229462    0.608511
C      2.115565   -1.280092   -0.050747
C      1.819089    1.048100   -0.121073
C      0.106678   -0.377784   -1.263230
C     -1.318834    0.702175    0.477057
C      1.350525   -0.202721   -0.476198
C     -1.114239   -0.503841   -0.381341
N     -2.251575   -0.670180   -1.253478
O     -2.387521    0.698256    1.321759
Cl     0.691564    0.000000    0.000000
H     -4.419933    0.633914    1.606776
H     -3.805047   -0.488428    0.406478
H     -3.867336    1.248012   -0.059779
H      4.627145    0.263817    1.597410
H      3.884904   -1.950995    1.023307
H      3.336832    2.226110    0.887024
H      1.785662   -2.265118   -0.305961
H      1.279010    1.928069   -0.415518
H      0.163959   -1.337460   -1.852780
H     -0.056340    0.427019   -1.985465
H     -0.403497    0.808867    1.136266
H     -1.418227    1.637567   -0.152873
H     -1.067031   -1.448469    0.229881
H     -2.589713   -1.665516   -1.302061
H     -2.086787   -0.270083   -2.204673
H     -0.691564    0.000000    0.000000
