28

C     -3.453145   -1.158685   -0.151778
C     -2.097820   -1.341202   -0.343383
C      1.068893   -0.411446    0.789786
C      0.811017    0.150941   -1.466594
C      3.308874    0.705482    0.834589
C      2.430645   -0.267359    0.077913
C      0.205071   -0.644346   -0.398689
C      2.072672    0.372975   -1.212574
C     -3.877567    0.088068    0.227496
C     -1.640074    0.836567    0.192940
F      3.004882    1.061600   -1.934225
N     -5.132102    0.295577    0.415200
N     -2.969374    1.055196    0.391496
N     -1.188799   -0.364767   -0.176972
O      4.512834    0.783658    0.137168
O     -0.761077    1.870395    0.377918
H     -4.140267   -1.976819   -0.299066
H     -1.788918   -2.335103   -0.642636
H      0.831419    0.480802    1.378437
H      1.104161   -1.330482    1.435799
H      0.345274    0.548896   -2.389616
H      2.836349    1.724947    0.748573
H      3.446927    0.448510    1.885646
H      2.919173   -1.237302   -0.022826
H      0.319621   -1.711655   -0.694936
H     -5.835122   -0.437661    0.292385
H      4.756663   -0.032854   -0.331493
H     -1.090211    2.826066    0.338332
