29

C      3.061481   -1.744166    0.059873
C     -3.663761   -0.285238    0.838699
C     -2.774209   -1.283655    1.201330
C     -3.237010    0.938689    0.388724
C     -1.430447   -1.012176    1.097045
C     -1.885326    1.164520    0.301142
C      0.480373    0.427657    0.562801
C      2.517070    0.286056   -0.835365
C     -0.967226    0.197339    0.652226
C      1.037875    0.039188   -0.775083
N      0.347973    0.768069   -1.839927
O      3.230557   -0.371483    0.151485
Cl     0.692509    0.000000    0.000000
H      3.678096   -2.183923    0.886317
H      2.022390   -2.083629    0.265036
H      3.381729   -2.148391   -0.918730
H     -4.723434   -0.486084    0.916091
H     -3.139440   -2.236777    1.551851
H     -3.927942    1.703961    0.110777
H     -0.750344   -1.805553    1.385256
H     -1.515644    2.124809   -0.052078
H      0.965040   -0.108520    1.386997
H      0.653393    1.513971    0.747258
H      2.949928   -0.024830   -1.806523
H      2.750576    1.377063   -0.745692
H      0.847551   -1.023634   -0.985904
H     -0.669574    0.663472   -1.783148
H      0.760326    0.548931   -2.760457
H     -0.692509    0.000000    0.000000
