30

C     -3.208102   -0.883713    1.033195
C     -1.849906   -0.910004    0.807752
C      0.948482   -1.000484    0.316470
C      0.673127    1.210972   -0.306610
C      3.103459   -0.138860    1.262943
C      2.321615   -0.438668    0.006449
C      0.061930   -0.173409   -0.536680
C     -4.045353   -0.158403    0.230749
C     -2.164096    0.493337   -0.995118
C      2.109254    0.861650   -0.719120
F      2.039649    0.630922   -2.098141
F      2.994222    1.835904   -0.394584
N     -5.309074   -0.164465    0.481030
N     -3.497098    0.528265   -0.785974
N     -1.329425   -0.216144   -0.213193
O      4.344275    0.370738    0.846989
O     -1.665024    1.230422   -2.069348
H     -3.615199   -1.456271    1.871346
H     -1.162561   -1.470859    1.420585
H      0.968019   -2.074721    0.049181
H      0.785918   -0.867032    1.401180
H      0.676368    1.417466    0.773690
H      0.237684    1.977930   -0.935862
H      2.623250    0.668387    1.843292
H      3.276133   -1.051669    1.861571
H      2.899737   -1.099282   -0.658419
H      0.230256   -0.449891   -1.594942
H     -5.921412    0.397882   -0.148177
H      4.562638    0.091046   -0.079642
H     -1.088767    0.838955   -2.796681
