30

C     -3.243232   -0.959025   -0.266516
C     -1.895452   -0.926960    0.056023
C      0.782026   -0.994155    0.244491
C      0.848988    1.347300    0.117124
C      3.059999   -1.376733   -0.682857
C      2.227919   -0.625546    0.354581
C      0.104701    0.251447    0.831263
C     -3.991679    0.192558   -0.138956
C     -2.069811    1.302365    0.600029
C      2.287379    0.850790    0.042444
F      3.073684    1.500608    0.995706
F      2.829112    1.059716   -1.214973
N     -5.250296    0.227257   -0.423207
N     -3.379873    1.306535    0.295783
N     -1.295286    0.198805    0.491139
O      4.389342   -1.032703   -0.575774
O     -1.492331    2.487789    1.045503
H     -3.740768   -1.855356   -0.617540
H     -1.334086   -1.840738   -0.052778
H      0.498766   -1.052425   -0.812915
H      0.518327   -1.896465    0.831043
H      0.460676    1.390045   -0.915290
H      0.805995    2.312255    0.630862
H      2.674850   -1.086670   -1.685140
H      2.926725   -2.473746   -0.500716
H      2.614305   -0.813964    1.374477
H      0.272958    0.265276    1.927551
H     -5.755255   -0.609645   -0.760379
H      4.503780   -0.461477    0.246699
H     -1.431464    3.312860    0.430043
