28

C      3.040284    1.439309   -0.208658
C      1.705296    1.263635   -0.508444
C     -0.943276   -0.772534    0.394754
C     -1.011559    0.967059   -1.157208
C     -3.271974   -0.460677    1.158274
C     -2.394906   -0.551890   -0.065116
C     -0.232154   -0.215349   -0.815628
C     -2.255907    0.795719   -0.736710
C      3.835425    0.337255    0.095965
C      1.919174   -1.020352   -0.218858
F     -3.316701    1.643728   -0.845642
N      5.095694    0.482829    0.381086
N      3.225292   -0.859988    0.075645
N      1.155068    0.054597   -0.513255
O     -2.810962    0.622853    1.914146
O      1.401938   -2.315966   -0.206760
H      3.521529    2.418523   -0.196274
H      1.091449    2.122172   -0.744421
H     -0.737523   -1.820444    0.593816
H     -0.740135   -0.090521    1.239546
H     -0.727163    1.893858   -1.669667
H     -3.139306   -1.403227    1.724771
H     -4.315417   -0.300117    0.879712
H     -2.704793   -1.331018   -0.773473
H     -0.295180   -0.931710   -1.662321
H      5.622548   -0.389510    0.597773
H     -3.601071    1.105525    2.263212
H      0.884330   -2.683762   -0.996264
