30

C     -1.449862   -0.114068   -0.849910
C     -1.568123    0.740595    1.296016
C     -3.932446   -0.119940   -1.231727
C      3.234617   -2.214429   -0.030715
C      1.031394    1.656744    0.338411
C     -2.823394   -0.356954   -0.257185
C     -0.665279   -0.138232    0.471564
C     -2.816756    0.608002    0.867228
C      2.864433    0.460975    0.095364
C      4.120645   -0.085018   -0.062546
C      1.753217   -0.378028    0.193223
F     -3.915010    1.230553    1.350302
N      5.218473    0.815519   -0.156949
N      4.303051   -1.401447   -0.124611
N      2.017459   -1.698568    0.121863
N      2.380821    1.711154    0.189056
N      0.647366    0.375464    0.340868
O     -5.134742   -0.374838   -0.572146
H     -1.401097    0.916295   -1.237965
H     -1.126745   -0.890471   -1.538197
H     -1.288230    1.396773    2.121279
H     -3.894281   -0.786872   -2.110426
H     -3.952000    0.952245   -1.510345
H      3.394926   -3.293974   -0.082804
H      0.360896    2.493149    0.439940
H     -2.815413   -1.365036    0.170669
H     -0.717130   -1.185242    0.827793
H      6.130948    0.481178   -0.532049
H      5.155299    1.812647    0.135827
H     -5.113040   -1.248173   -0.080903
