30

C      3.740088   -0.638276   -1.297323
C     -1.666923    0.469323    0.197836
C     -0.736374   -1.400611    1.212647
C      1.570921   -0.305163   -0.076956
C     -3.886565   -0.605059   -0.238002
C      2.792192    0.161858   -0.482081
C     -2.788782   -0.413115    0.760957
C     -0.546946    0.051792    1.128205
C     -2.017499   -1.683103    1.004263
C      3.179885    1.440027   -0.123962
C      1.159905    1.705800    0.993346
F     -2.617456   -2.899852    0.995424
N      2.349990    2.197236    0.614219
N      0.743554    0.454699    0.661113
O     -4.406634    0.631923   -0.560065
O      4.428396    1.953871   -0.522440
O      0.419386    2.456396    1.684312
H      3.452836   -1.712166   -1.320451
H      3.738219   -0.262394   -2.345820
H      4.775073   -0.525579   -0.914991
H     -1.443112    0.126405   -0.827835
H     -1.911309    1.539058    0.274143
H     -0.004000   -2.195526    1.409922
H      1.243330   -1.299126   -0.342487
H     -4.687252   -1.185316    0.253291
H     -3.463349   -1.144662   -1.106054
H     -3.106377    0.066091    1.698390
H     -0.784132    0.489788    2.141604
H     -4.664516    0.592921   -1.523153
H      5.137451    1.932761    0.225844
