110

C      1.974765    0.466454    0.689167
C      1.505658    1.046474   -1.710565
C      3.278190    0.542437    0.640457
C      9.148064    2.087253   -0.648971
C      8.093537    3.057248    1.204644
C     -6.070313   -2.528703    3.353278
C     -7.353219   -2.446215    1.369646
C     -5.267107    2.225692   -2.862719
C     -4.558479    0.402712   -4.142798
C      9.742903    3.271830   -1.012931
C      8.679071    4.272518    0.865444
C     -7.188275   -2.580659    4.168860
C     -8.484991   -2.497639    2.164556
C     -6.517334    2.201317   -3.450313
C     -5.824088    0.346377   -4.764813
C      0.598070    1.233652   -2.762341
C     -0.268688    0.519172   -0.279026
C      3.749436    0.108251    3.021646
C      6.903465   -1.850273    0.085268
C      5.540325   -0.950831   -1.637273
C     -3.604071    0.177918    2.150070
C     -5.403326    1.137819    0.968915
C      6.180035   -3.259299   -1.725767
C     -4.301449    2.364253    2.655896
C     -2.313403   -1.609361   -2.421748
C      5.995094   -0.049884    3.819376
C     -3.414753   -3.605482   -1.795953
C      1.091246    0.687805   -0.455479
C      8.328601    1.943493    0.438624
C     -6.131654   -2.462852    1.988710
C     -4.275362    1.340068   -3.191712
C      4.193512    0.333105    1.747518
C      6.221058   -0.771972   -0.477922
C     -4.583482    0.047466    1.159771
C      9.505921    4.389212   -0.242612
C     -8.438408   -2.564046    3.541492
C     -6.794470    1.249716   -4.411343
C      6.874815   -3.078482   -0.544201
C      5.505686   -2.182171   -2.277754
C     -3.432518    1.302286    2.908606
C     -5.285466    2.301532    1.697838
C      4.652597   -0.088618    4.083152
C     -2.504289   -2.964197   -2.601604
C     -1.178790    0.697769   -1.298657
C     -2.976650   -0.845339   -1.483884
C     -0.755569    1.058043   -2.553046
C      6.468678    0.176202    2.534737
C     -4.113978   -2.911601   -0.838203
C      5.555301    0.362247    1.521118
C      6.321083    0.528631    0.271233
C     -4.789120   -1.132916    0.383252
C     -2.685776    0.574091   -1.387353
C     -3.895520   -1.534389   -0.682667
C      7.749015    0.618107    0.732836
C     -4.907283   -2.410404    1.197916
C     -2.976147    1.427383   -2.564719
O     10.094437    5.588540   -0.592383
O     -9.563674   -2.616192    4.352526
O     -8.057595    1.209811   -5.018970
O      7.557928   -4.172487    0.012910
O      4.804342   -2.360015   -3.467823
O     -2.454383    1.418296    3.890232
O     -6.140407    3.390128    1.473294
O      4.221294   -0.317273    5.374804
O     -1.786318   -3.646518   -3.575498
O     -1.868560    1.180863   -3.419895
O      7.775555    0.251545    2.081820
O     -5.090253   -3.324084    0.104516
H      1.540572    0.218581    1.672210
H      2.551031    1.188536   -1.896872
H      3.706131    0.804087   -0.341987
H      9.351790    1.208436   -1.280627
H      7.454063    2.960033    2.060969
H     -5.097274   -2.543002    3.861138
H     -7.453248   -2.395424    0.276402
H     -5.057709    2.973163   -2.107487
H     -3.834368   -0.339338   -4.473249
H     10.380377    3.309351   -1.885127
H      8.519240    5.159362    1.438733
H     -7.134643   -2.632954    5.245844
H     -9.480430   -2.487804    1.712612
H     -7.306317    2.899403   -3.193868
H     -6.065918   -0.380419   -5.513509
H      0.954821    1.520314   -3.752587
H     -0.635191    0.235445    0.700876
H      2.707029    0.073857    3.261598
H      7.462638   -1.790947    0.995809
H      5.013831   -0.120862   -2.082276
H     -2.934520   -0.659691    2.334705
H     -6.206791    1.132608    0.216532
H      6.163677   -4.238792   -2.219018
H     -4.214231    3.297540    3.232863
H     -1.588038   -1.109840   -3.074327
H      6.740492   -0.198173    4.618206
H     -3.593386   -4.682995   -1.911612
H      5.994131    1.372707   -0.357639
H     -5.821379   -1.058451   -0.105339
H     -3.010409    1.063776   -0.450143
H      8.387641   -0.133835    0.194715
H     -3.993538   -2.602560    1.754534
H     -2.770019    2.501200   -2.204938
H     11.013213    5.877392   -0.245182
H    -10.022396   -1.767486    4.716911
H     -8.265292    1.737691   -5.871603
H      8.075730   -4.060180    0.882930
H      3.836632   -2.642557   -3.389369
H     -2.751635    1.117448    4.830278
H     -7.003384    3.420099    2.017285
H      3.272173   -0.364975    5.670889
H     -1.939611   -4.636560   -3.692470
