32

C      1.737202    0.622377    0.670238
C      0.819326   -0.458706   -1.222922
C      3.740766   -0.853814    0.418212
C     -3.498276    0.005440   -1.912095
C     -0.926437    0.253334    1.718439
C      2.872454    0.213614   -0.211233
C      0.547120    0.668319   -0.237628
C     -2.838252   -0.045032    0.706468
C     -4.129041   -0.265247    0.301051
C     -1.856967    0.205850   -0.219523
C      2.290865   -0.268866   -1.504503
F      2.424927    0.669290   -2.513535
F      2.869337   -1.461164   -1.893706
N     -5.125086   -0.524390    1.307176
N     -4.441606   -0.238053   -0.987676
N     -2.229176    0.223038   -1.529549
N     -2.228696   -0.010347    1.922988
N     -0.691771    0.385959    0.422918
O      4.298601   -0.414995    1.617149
H      1.590026   -0.061121    1.517860
H      1.892246    1.639227    1.077577
H      0.595717   -1.417871   -0.713027
H      0.193705   -0.350046   -2.110233
H      4.589392   -1.055876   -0.268468
H      3.196453   -1.795275    0.579694
H     -3.719747    0.035472   -2.984308
H     -0.213070    0.333952    2.550277
H      3.506592    1.092350   -0.434384
H      0.539385    1.629569   -0.784428
H     -4.955770   -0.260258    2.283814
H     -6.004516   -0.981590    1.004350
H      5.154296    0.051767    1.429006
