64

C     -1.102245    2.198402   -4.083082
C     -1.823409    2.134933   -1.294888
C      0.530878    2.393421   -1.702742
C      4.662605    3.081423    3.523265
C      4.313542    1.012141    4.866051
C     -0.831431    1.199219   -3.255380
C     -5.265955   -3.591954   -1.660354
C     -4.903959   -2.157666   -1.994881
C      3.137338   -0.683561   -0.518099
C      3.999898   -0.226357    0.473383
C      1.628300    1.645824    2.672567
C      2.477544    2.058333    3.597467
C     -4.023675   -4.158325   -1.056981
C      0.220721   -2.100770   -0.827974
C      2.120332    0.849658    1.569747
C      1.803173   -0.359579   -0.430720
C     -3.850586   -1.760510   -1.007963
C     -1.104278   -1.779120   -0.113845
C      3.465853    0.527004    1.488740
C      1.245287    0.393318    0.575168
C     -1.969977   -2.952414   -0.036287
C     -2.820516   -0.829798   -1.595549
C     -0.601433    1.395751   -1.799158
C      3.928249    1.753467    3.578725
C      0.690958   -0.727522   -1.332717
C     -0.437371    0.154236   -1.031382
N     -0.144524    0.550874    0.358466
N     -3.240504   -3.031904   -0.676218
N     -1.560832   -0.741323   -1.016880
O     -1.579981   -3.945935    0.626917
O     -3.201624   -0.182502   -2.603989
O      1.070328   -0.795386   -2.659271
O      4.329811    0.988288    2.487001
H     -1.269809    2.054781   -5.136438
H     -1.154211    3.216290   -3.656666
H     -2.380223    1.456366   -0.614165
H     -1.533440    3.044836   -0.710434
H     -2.519595    2.401702   -2.118876
H      1.291848    2.268561   -2.501823
H      0.172935    3.440686   -1.811794
H      1.070553    2.378273   -0.740982
H      4.738066    3.506639    4.535772
H      4.082246    3.726926    2.829742
H      5.672780    2.914293    3.062577
H      3.435003    0.510194    5.286319
H      4.642313    1.781951    5.596247
H      5.115493    0.276425    4.655096
H     -0.765751    0.204418   -3.660505
H     -5.630265   -4.160907   -2.534079
H     -6.099472   -3.558604   -0.919726
H     -4.449164   -2.162628   -3.007638
H     -5.790558   -1.494352   -2.004187
H      3.517040   -1.291219   -1.352570
H      5.045580   -0.486049    0.395464
H      0.590805    1.899647    2.741857
H      2.121697    2.654696    4.428691
H     -4.247079   -4.740930   -0.135681
H     -3.518769   -4.808193   -1.815161
H     -0.071498   -2.727795   -1.695505
H      0.941898   -2.595888   -0.188600
H     -4.322354   -1.327115   -0.116232
H     -0.876402   -1.389787    0.893839
H     -0.814903    0.886393    1.065901
H      1.842719   -0.191275   -2.845461
