54

C      3.449677   -0.521102    2.702377
C     -2.545487    0.738381   -2.231712
C      1.203264   -1.693508   -3.254533
C     -4.974264   -0.598265    0.392147
C     -4.427754    0.200743   -0.743414
C      5.561843   -0.579561   -0.198281
C      6.520075    0.326196   -0.668174
C      1.287981    0.244999    3.620333
C     -6.418523   -0.181113    0.623046
C     -0.058028    0.525935    3.539135
C      3.815171    0.955300   -0.707520
C     -0.120061   -0.747405   -1.001071
C      2.011004   -0.227614    2.512314
C     -2.997833   -0.117080   -1.076777
C      4.231888   -0.244953   -0.228467
C      6.122776    1.553915   -1.160658
C      4.781771    1.844791   -1.171154
C     -0.782396   -0.280378    0.103456
C      1.216477   -1.030901   -0.943045
C      1.301270   -0.390799    1.351909
C     -0.070070   -0.105471    1.268872
C      1.938332   -0.855666    0.228624
Cl     7.266680    2.726080   -1.760578
Cl     4.272754    3.413694   -1.800376
N     -6.506364    1.234973    0.946884
N     -0.692514    0.341972    2.368864
N     -2.186967    0.030589    0.088084
O      1.912139   -1.505136   -2.047353
O      3.303712   -1.156717    0.241441
H      4.122374    0.324038    2.487057
H      3.780369   -1.508760    2.334672
H      3.609183   -0.653731    3.840991
H     -2.485607    0.137068   -3.162208
H     -1.629235    1.319070   -2.019442
H     -3.333731    1.517792   -2.450565
H      0.859720   -0.721489   -3.616101
H      1.805748   -2.259442   -4.000374
H      0.280366   -2.303802   -3.039511
H     -5.027617   -1.694673    0.127703
H     -4.421992   -0.541395    1.328552
H     -5.043765   -0.016943   -1.638892
H     -4.475346    1.271351   -0.469532
H      5.938847   -1.522498    0.173847
H      7.567447    0.073686   -0.649120
H      1.794302    0.393901    4.562237
H     -6.876025   -0.729222    1.480220
H     -6.957909   -0.365183   -0.318564
H     -0.638768    0.889714    4.371996
H      2.772443    1.215784   -0.730399
H     -0.697047   -0.888292   -1.937731
H     -2.982801   -1.196793   -1.400483
H     -6.231706    1.438551    1.928614
H     -7.499463    1.536107    0.836998
H     -2.646339    0.383262    0.965661
