61

C      7.383947    1.012673    0.161787
C      7.483076   -1.406822   -0.204033
C     -1.143508    0.134371    2.605047
C     -1.648567   -1.735275    1.115849
C     -6.702732   -0.067526   -0.219132
C      2.275982    0.199815   -2.356052
C      3.656579    0.177457   -2.355342
C      4.383504   -0.414677    1.231771
C     -5.900824    1.021987    0.492976
C      5.701858   -0.433180    1.214803
C     -5.714252   -1.199641   -0.384008
C     -0.943732    0.150068   -1.728155
C     -3.446641    0.833998    1.064901
C      1.564060    0.022007   -1.186248
C      3.653422   -0.202202   -0.008632
C      0.221136   -0.012655   -0.838314
C      4.370567   -0.026191   -1.167840
C     -2.106860    0.646026    0.434011
C      2.279409   -0.178086   -0.020846
C      0.134103   -0.230770    0.518379
C     -4.105956    1.752910   -1.060961
C     -3.189967   -0.794806   -1.186202
C      6.527190   -0.251470    0.009588
C     -1.205542   -0.311612    1.151889
C     -4.526612    0.794816    0.012043
C     -2.229207    0.357060   -1.034185
N      1.396485   -0.326090    0.981769
N     -2.955731    1.501819   -1.606918
N     -4.456987   -0.527046   -0.582732
O     -4.903175    2.819432   -1.424949
O     -2.878209   -1.838962   -1.774901
O      5.747942   -0.051690   -1.147389
H      6.716728    1.825554    0.452344
H      8.201451    0.840218    0.891527
H      7.801649    1.221609   -0.844007
H      7.048857   -2.381554    0.096683
H      8.365952   -1.222448    0.444215
H      7.819224   -1.377739   -1.255272
H     -1.997144   -0.332646    3.138457
H     -0.215713   -0.207429    3.069988
H     -1.221930    1.245802    2.612968
H     -2.724995   -1.898843    1.132759
H     -1.122917   -2.295942    0.289915
H     -1.248834   -2.222127    2.053907
H     -7.062310    0.262727   -1.203426
H     -7.534163   -0.415597    0.453571
H      1.741089    0.355938   -3.267705
H      4.260060    0.311337   -3.242872
H      3.792954   -0.550958    2.132844
H     -6.058264    0.870062    1.573468
H     -6.315269    1.983236    0.129508
H      6.221106   -0.593338    2.152898
H     -5.980649   -1.868271   -1.229183
H     -5.739472   -1.781767    0.564385
H     -0.791632    0.973305   -2.466513
H     -0.992988   -0.783352   -2.361714
H     -3.555468    1.822717    1.590025
H     -3.647809    0.073660    1.858935
H     -1.589918    1.650403    0.499366
H      1.607419   -0.494124    1.999245
H     -4.497771    3.573827   -1.974291
