62

C      7.007423   -1.123610   -1.649046
C      6.974336   -1.897954    0.726483
C     -0.480078    0.424010    2.596919
C     -1.098841   -1.420406    1.121855
C     -6.535797   -0.110316   -0.532076
C      1.340214   -1.561588   -0.631631
C      2.593056   -2.099488   -0.822139
C      4.775733    0.673902    0.340849
C     -5.880535    0.657727    0.596527
C      5.959062    0.188348    0.170081
C     -5.427600   -0.957941   -1.158858
C     -3.475697    0.335004    1.269333
C     -0.703981    1.019018   -1.064818
C      3.600827   -0.121206   -0.004012
C      1.167724   -0.280914   -0.118325
C      3.721208   -1.390151   -0.512572
C     -2.151381    0.841886    0.834529
C      2.308992    0.415051    0.185054
C     -4.086249    2.080378   -0.387492
C      0.677442    1.831433    0.697998
C     -2.876170   -0.155432   -1.351796
C      6.175866   -1.158238   -0.367732
C     -0.957819    0.053875    1.172433
C     -4.473396    0.766327    0.180372
C      0.055258    0.584168    0.202958
C     -2.101288    0.935377   -0.667976
N      1.936379    1.694400    0.674938
N     -2.902994    2.140611   -0.959011
N     -4.237691   -0.221996   -0.890180
O     -4.884842    3.201954   -0.343756
O      0.001481    2.994612    1.129897
O     -2.412764   -0.912727   -2.210894
O      5.005755   -1.872194   -0.679559
H      6.356509   -0.636145   -2.410020
H      7.321775   -2.134915   -1.924113
H      7.838035   -0.418286   -1.461687
H      6.730573   -2.958512    0.746733
H      6.731946   -1.481496    1.726070
H      8.049114   -1.674236    0.543324
H     -0.877066    1.433357    2.816723
H     -0.919277   -0.290690    3.332846
H      0.609114    0.347338    2.680868
H     -0.126158   -1.911254    1.371833
H     -1.595393   -1.828770    0.222435
H     -1.765948   -1.808819    1.964525
H     -7.394546   -0.705778   -0.219285
H     -6.802273    0.655389   -1.309856
H      0.451387   -2.114664   -0.889318
H      2.730955   -3.114129   -1.228191
H      4.565185    1.665570    0.735923
H     -5.987646    0.057510    1.522779
H     -6.331659    1.664495    0.685285
H      6.807356    0.801960    0.434999
H     -5.568762   -1.064506   -2.246974
H     -5.400737   -1.974966   -0.696882
H     -3.544900   -0.736482    1.453754
H     -3.805611    0.856650    2.191381
H     -0.404534    0.264245   -1.851836
H     -0.370417    1.982947   -1.450066
H     -2.025924    1.866230    1.251332
H     -4.408345    4.104351   -0.366924
H      0.523614    3.599687    1.752088
