56

C     -1.541651   -2.040601    0.339916
C      2.184441    1.619231    2.101075
C     -5.706171   -0.243949   -0.323856
C     -4.023153   -0.295580    1.562746
C      3.724473   -1.469656    1.178791
C      5.573930   -0.629171   -0.223503
C     -3.545264    0.421078   -1.770444
C      3.737420    0.897238   -1.291119
C     -2.388796    1.587002    0.115449
C      1.827390   -0.680842   -0.877594
C     -1.915590   -0.814953   -0.455293
C      2.332282    1.229428    0.651937
C     -3.719025    1.216304   -0.468469
C      3.289156   -0.542698   -1.153512
C     -3.356700   -0.793839   -0.848842
C      3.723090    0.920192    0.248464
C     -1.452175    0.434817    0.237481
C      1.322840    0.188512    0.230449
C     -4.252951   -0.088844    0.115380
C      4.094448   -0.512627    0.152539
B     -0.024578    0.878483   -0.292035
Br     0.020399    2.298939   -1.709017
H     -0.688617   -2.604137   -0.117502
H     -1.162824   -1.759879    1.366275
H     -2.373466   -2.777430    0.402727
H      3.158925    2.026805    2.437449
H      1.852720    0.788157    2.748379
H      1.438033    2.429691    2.230631
H     -6.140224    0.718079   -0.656863
H     -6.312190   -0.601305    0.531029
H     -5.809490   -0.954815   -1.162502
H     -5.032876   -0.427915    2.053123
H     -3.618745    0.639385    2.045520
H     -3.443087   -1.180114    1.839243
H      3.137060   -1.107897    2.033949
H      4.608846   -1.990454    1.600336
H      3.103280   -2.292782    0.717821
H      5.716087   -1.070122   -1.210365
H      6.111948   -1.296694    0.510940
H      6.090467    0.332922   -0.186429
H     -2.644676    0.689440   -2.336287
H     -4.487674    0.387072   -2.316730
H      3.043400    1.578011   -1.766539
H      4.788228    0.917962   -1.651615
H     -2.565415    2.094334    1.070669
H     -1.951599    2.373502   -0.567816
H      1.288110   -0.506407   -1.835858
H      1.638179   -1.735867   -0.587853
H     -1.323089   -0.874763   -1.416687
H      2.035519    2.160259    0.077209
H     -4.421890    2.039744   -0.517146
H      3.640067   -1.241948   -1.901282
H     -3.680989   -1.741632   -1.261986
H      4.443210    1.614800    0.673452
H     -1.374421    0.175263    1.333523
H      1.033379   -0.379729    1.138464
