71

C      7.991672    0.383509   -2.525100
C      7.703771    0.085103   -1.074501
C      6.931013   -1.182039   -0.879661
C      6.566974   -1.554625    0.482199
C      5.533228   -0.923858    1.292968
C      5.381782    0.507204    1.499041
C      4.757955    1.354682    0.462622
C      3.257935    0.972463    0.269587
C      2.553796    1.095709    1.563022
C      1.093221    0.848648    1.573990
C      0.580774   -0.469137    1.110474
C     -0.911469   -0.476093    1.386268
C     -1.674446    0.570661    0.697283
C     -7.254849   -0.762780   -1.307403
C     -6.048502    1.109743   -0.437895
C     -8.353766   -0.352432   -0.553973
C     -7.155698    1.521185    0.317909
C     -1.748795    0.506956   -0.798462
C     -4.146258   -2.032975   -0.372800
C     -6.125277   -0.016873   -1.229529
C     -8.302926    0.772053    0.244163
C     -3.846337   -0.629925   -0.929976
C     -4.839658   -0.351633   -1.991505
N     -2.461834   -0.667401   -1.286770
N     -9.449426    1.187900    1.015651
O     -3.889162   -2.998721   -1.378810
O     -4.587604    0.855569   -2.662521
O     -9.378267    2.309741    1.804878
O    -10.467051    0.504659    0.931835
Cl     0.684063    0.000000    0.000000
H      7.594060   -0.425621   -3.173692
H      9.097563    0.484639   -2.660164
H      7.571749    1.379534   -2.784852
H      7.339228    0.971008   -0.573952
H      8.752069   -0.056806   -0.589486
H      7.557626   -2.006582   -1.357062
H      5.998725   -1.191780   -1.525298
H      6.341359   -2.706911    0.444683
H      7.531289   -1.608874    1.133667
H      4.511998   -1.370794    0.969197
H      5.601989   -1.454864    2.333896
H      4.949261    0.680165    2.523192
H      6.440429    0.935507    1.632996
H      4.798365    2.436673    0.657162
H      5.170275    1.155369   -0.530794
H      2.872191    1.728171   -0.435055
H      3.221479   -0.005879   -0.228084
H      2.722153    2.081173    2.062579
H      3.005254    0.290015    2.237601
H      0.585910    1.645357    0.923068
H      0.636786    1.016622    2.592433
H      0.734841   -0.627824    0.012096
H      1.064871   -1.281826    1.697144
H     -1.068021   -0.331542    2.499125
H     -1.335904   -1.496206    1.167672
H     -1.250603    1.601343    0.924836
H     -2.722195    0.678389    1.121070
H     -7.289485   -1.642355   -1.928439
H     -5.183614    1.739484   -0.325305
H     -9.264722   -0.924315   -0.596698
H     -7.127579    2.401821    0.942601
H     -0.700442    0.392484   -1.179773
H     -2.125101    1.439442   -1.199079
H     -3.509959   -2.267598    0.500295
H     -5.213621   -2.155714   -0.109212
H     -4.069641    0.045837   -0.083456
H     -5.010850   -1.155545   -2.669963
H     -1.967648   -1.563240   -1.132631
H     -3.642246   -2.592025   -2.230572
H     -4.328637    1.595974   -2.104962
H     -0.684063    0.000000    0.000000
