51

C     -1.309838   -2.195592   -1.619983
C     -4.051179   -2.426921    1.440128
C      5.753021    1.003276   -1.904057
C     -1.049270    2.226193   -1.895127
C     -3.226132    2.321431   -0.706666
C     -1.308045    3.531723    0.186001
C     -1.949209   -1.825457   -0.528534
C     -2.738971   -3.150363    1.336853
C      4.056091   -0.725679   -1.258007
C      4.346853    1.208821    0.109821
C      3.070692   -1.224608   -0.431389
C      3.367021    0.715171    0.934880
C     -1.216239   -1.214456    1.779305
C      4.689157    0.464405   -1.005413
C     -1.614406   -2.315620    0.823591
C      2.723854   -0.480281    0.690024
C     -0.188463    0.690629    0.592241
C     -1.698791    2.261183   -0.532777
N     -0.065433   -0.472736    1.361457
O      0.777610    1.391877    0.197815
O      1.576761   -2.503705    1.926414
O      1.884651   -0.466769    3.178172
O     -1.446427    1.119248    0.228389
S      1.500420   -1.008982    1.807037
H     -0.491862   -2.892988   -1.560813
H     -1.590077   -1.810178   -2.583249
H     -3.978113   -1.432983    1.922688
H     -4.602287   -2.397529    0.479370
H     -4.699704   -3.041230    2.133124
H      6.722658    0.701188   -1.479486
H      5.718224    2.111940   -1.967230
H      5.666800    0.571241   -2.924694
H      0.028620    2.379624   -1.822439
H     -1.466909    3.070894   -2.481806
H     -1.348547    1.302086   -2.427688
H     -3.550570    1.588200   -1.475527
H     -3.696604    2.000337    0.240080
H     -3.548584    3.344804   -0.917951
H     -0.284641    3.861442   -0.079937
H     -2.028080    4.323337   -0.090393
H     -1.437254    3.346172    1.262212
H     -2.777865   -1.118684   -0.627247
H     -2.527461   -3.613542    2.324534
H     -2.898535   -3.990949    0.611224
H      4.322592   -1.306610   -2.131761
H      4.861281    2.139908    0.285779
H      2.559493   -2.154444   -0.607804
H      3.098923    1.307506    1.817464
H     -2.128758   -0.571493    1.885749
H     -1.070469   -1.634387    2.809552
H     -0.736000   -3.006448    0.696070
