71

C      9.845945   -0.768713    1.414800
C      8.912736   -1.453630    0.475592
C      7.804651   -0.583741   -0.065001
C      6.902419   -0.037272    1.010840
C      5.816210    0.823658    0.418774
C      4.937472    0.046301   -0.565476
C      3.871695    1.013878   -1.088318
C      2.998359    0.313674   -2.074914
C      2.292806   -0.848434   -1.449466
C      1.421430   -0.417981   -0.320489
C      0.395888    0.569754   -0.847673
C     -0.546252    1.014483    0.244570
C     -1.516451    2.028825   -0.279786
C     -6.129509   -1.092159    1.895851
C     -7.247684   -1.087499   -0.180115
C     -7.336295   -1.135985    2.544184
C     -8.477814   -1.131585    0.436382
C     -2.322972    1.494868   -1.392817
C     -5.329391    1.353162   -0.808590
C     -6.070310   -1.067358    0.535163
C     -8.508600   -1.155823    1.820419
C     -4.257425    0.411839   -0.363592
C     -4.814523   -1.015600   -0.237303
N     -3.125548    0.366867   -1.191579
N     -9.758946   -1.199936    2.520636
O     -4.940894    2.681964   -0.877345
O     -3.905344   -1.890798    0.332312
O     -9.797146   -1.222909    3.887075
O    -10.818014   -1.216910    1.864424
Cl     0.692019    0.000000    0.000000
H     10.792583   -0.459923    0.910750
H      9.410196    0.127603    1.848818
H     10.113577   -1.470806    2.256571
H      8.436929   -2.368463    0.937315
H      9.510851   -1.791575   -0.404053
H      8.275302    0.260526   -0.616428
H      7.208234   -1.234655   -0.743942
H      6.423033   -0.888639    1.558628
H      7.464763    0.613402    1.715549
H      5.138564    1.163986    1.242747
H      6.230636    1.728385   -0.060631
H      5.508817   -0.374907   -1.388473
H      4.392646   -0.722290    0.028143
H      4.358375    1.907810   -1.537495
H      3.317934    1.349506   -0.194329
H      2.285538    1.000372   -2.586764
H      3.633110   -0.075066   -2.937931
H      3.031415   -1.628071   -1.160675
H      1.602925   -1.250329   -2.253594
H      1.933073    0.053796    0.518639
H      0.833706   -1.275024    0.096204
H     -0.226768    0.019828   -1.607726
H      0.858946    1.473243   -1.258907
H     -1.075104    0.092324    0.595925
H      0.023237    1.392689    1.122793
H     -0.947079    2.916118   -0.699066
H     -2.109922    2.487590    0.541395
H     -5.220231   -1.076783    2.463703
H     -7.260839   -1.071123   -1.282899
H     -7.388034   -1.155894    3.653668
H     -9.417421   -1.148642   -0.130566
H     -2.893158    2.374652   -1.847249
H     -1.615455    1.250520   -2.247035
H     -5.715707    1.092022   -1.835073
H     -6.167693    1.229050   -0.058131
H     -3.903494    0.647829    0.682340
H     -4.970760   -1.410370   -1.289333
H     -2.605050   -0.516676   -1.101121
H     -5.266133    3.125447   -1.678540
H     -4.298035   -2.367474    1.088213
H     -0.692019    0.000000    0.000000
