62

C     -2.707204    1.170884   -3.901970
C      7.528246   -1.985562    0.571559
C      6.152526   -1.904189    0.497967
C      8.258159   -0.863566    0.256639
C      3.228750   -1.829496   -0.068236
C     -5.340425   -0.356213    1.641546
C      1.850589   -1.721252   -0.111743
C     -0.227969   -0.378555    0.003532
C     -4.636522   -0.812412    2.887229
C     -0.837902    0.785775   -0.142443
C      6.273201    0.344691   -0.186302
C     -5.112006    0.449057   -0.653788
C     -2.441172   -0.341437    1.944602
C      3.326580    0.502076    0.231768
C     -2.025825    0.734891   -2.622802
C      5.474972   -0.749738    0.119571
C     -4.474271    0.400253    0.698997
C      4.003814   -0.679989    0.108913
C      7.655491    0.304292   -0.120699
C      1.204207   -0.500449    0.012298
C     -3.401024    0.064860    3.036428
C     -2.301798    0.930351   -0.146936
C     -3.063621   -0.148814    0.562373
C     -4.179989    0.644318   -1.779745
C     -2.879804    1.307626   -1.463249
C     -3.727642   -0.663906   -2.373789
C      8.503499    1.508559   -0.403087
F      9.330672    1.315660   -1.475831
F      9.254535    1.757052    0.764228
F      7.676390    2.606036   -0.625871
N      1.970458    0.584486    0.183735
O     -2.807732   -0.070603    4.286652
O     -4.563215   -1.548147   -2.685888
O     -2.338986   -0.646480   -2.477375
H     -3.104603    2.192143   -3.798252
H     -3.564620    0.508000   -4.133396
H     -1.953829    1.142721   -4.721817
H      7.950667   -2.934298    0.881560
H      5.556128   -2.784059    0.737748
H      9.352999   -0.945530    0.320037
H      3.755986   -2.765576   -0.166867
H     -5.874452   -1.188057    1.124646
H     -6.169008    0.339905    1.960141
H      1.276155   -2.629862   -0.234174
H     -0.825926   -1.272963    0.122304
H     -5.325876   -0.717454    3.748051
H     -4.330920   -1.894855    2.792268
H     -0.177769    1.641574   -0.255370
H      5.772461    1.256316   -0.487233
H     -5.636666   -0.521654   -0.808672
H     -5.911975    1.222207   -0.638137
H     -1.477114    0.201441    2.023648
H     -2.259624   -1.428736    2.070068
H      3.928342    1.423265    0.375999
H     -0.983071    0.983069   -2.549517
H     -4.345875    1.478849    1.006287
H     -3.742530    1.114115    2.867032
H     -2.503505    1.860154    0.519976
H     -3.120711   -1.069450   -0.003236
H     -4.673599    1.202322   -2.589667
H     -2.914429    2.394485   -1.618373
H     -3.321621    0.546393    4.886662
