83

C      4.892769    0.361791    0.558614
C     -4.651731    0.514505   -0.251157
C     -3.289357    0.527333   -0.948641
C     -4.241582    0.291936    1.171110
C      3.664309    1.200391    0.269715
C     -2.590686   -0.533707   -0.096898
C      2.461843    0.316730    0.394024
C     -0.190036   -1.226790   -0.684114
C     -1.114134   -0.434574   -0.213178
C      2.532394   -0.830954   -0.587368
C      1.288453    0.660568   -0.482497
C     -0.553300   -2.558059   -1.266169
N      1.138384   -0.770219   -0.613947
O      3.609484    2.207070    1.225348
O      3.442620   -1.511328   -1.120135
O     -1.723704   -2.907928   -1.303984
O      0.408142   -3.418326   -1.770515
O     -2.964508   -0.192356    1.203660
S     -0.248464    1.058523    0.365374
C     -3.581297   -1.489454    0.072119
C      3.833127   -0.829055   -0.636257
C      3.777498    0.662215   -0.434682
C      2.847272   -1.276767    0.453067
C     -3.739649   -0.253431    0.899097
C      2.660674    0.884852    0.446087
C     -2.564306    0.679448    0.825476
C      0.443943    0.838115   -0.875650
C      1.264002    0.871284    0.125681
C     -2.349418    1.121658   -0.572329
C     -1.221607    0.082217    0.683864
C      0.843275    0.797075   -2.271644
N     -0.946458    0.859144   -0.549458
O     -4.852701    0.456178    0.403209
O     -3.134676    1.564311   -1.444105
O     -0.076167    0.765580   -3.166953
O      2.131425    0.788866   -2.758439
O      2.865810   -0.206395    1.377643
S      0.117170    0.942375    1.610725
Na     0.000000    0.000000    0.000000
Na     0.000000    0.000000    0.000000
O     -0.004780    0.368643   -0.000000
O     -0.007841    0.361264   -0.000000
O     -0.007740    0.374360   -0.000000
O     -0.002536    0.395622   -0.000000
O     -0.004618    0.365445   -0.000000
H      4.610667   -0.496779    1.214319
H      5.675649    0.936020    1.087566
H      5.320156   -0.069926   -0.364685
H     -5.221387    1.427611   -0.429352
H     -5.167348   -0.413789   -0.596030
H     -3.353100    0.247935   -1.997759
H     -2.818711    1.516333   -0.769499
H     -4.992140   -0.360393    1.684606
H     -4.265289    1.296233    1.684982
H      3.726999    1.592500   -0.753378
H     -3.034133   -1.489989   -0.324944
H      2.171351    0.006999    1.399965
H      1.527138    1.221925   -1.384317
H      3.949251    1.830716    2.097034
H     -4.458158   -1.642781   -0.622247
H     -2.692471   -1.499854   -0.572359
H     -3.625339   -2.367341    0.769434
H      3.579653   -1.189905   -1.623959
H      4.829008   -1.277289   -0.380640
H      4.717590    0.833800    0.260074
H      4.032695    1.296254   -1.258877
H      3.213410   -2.206977    0.887523
H      1.867433   -1.359737   -0.042202
H     -3.957063   -0.458057    1.971138
H      2.876267    1.795193    1.139561
H     -2.691075    1.503060    1.550679
H     -1.093978   -0.990461    0.588482
H     -4.915890    0.305880   -0.590369
H      0.821961   -0.182726    0.000000
H     -0.817181   -0.185917   -0.000000
H      0.832174   -0.178079    0.000000
H     -0.824333   -0.183185   -0.000000
H      0.818066   -0.184532    0.000000
H     -0.810326   -0.189828   -0.000000
H     -0.789367   -0.198812   -0.000000
H      0.791903   -0.196810    0.000000
H      0.824412   -0.181198    0.000000
H     -0.819794   -0.184247   -0.000000
