83

C      3.694287   -1.375338    0.655195
C     -4.181590   -0.235786    1.112354
C     -3.018767   -0.879080    0.393153
C     -4.342391    1.110357    0.440559
C      3.787339    0.084065    1.041068
C     -2.570896    0.207563   -0.562486
C      2.597653    0.837530    0.510727
C     -0.150276    0.090843   -1.387784
C     -1.089737    0.322543   -0.494486
C      2.553933    0.728227   -0.980550
C      1.378798    0.000499    0.461684
C     -0.427374   -0.380859   -2.774164
N      1.174045    0.338870   -0.963925
O      4.999725    0.619957    0.570797
O      3.392715    0.906630   -1.887375
O     -1.569574   -0.601613   -3.209334
O      0.615435   -0.605147   -3.682553
O     -3.042851    1.407223    0.037140
S     -0.182703    0.824144    1.010038
C      4.979950    0.005546   -0.612011
C     -4.425994    0.095428   -1.207885
C     -2.931526    0.222735   -1.283403
C     -4.606579   -0.599331    0.136319
C      3.798495    0.926692   -0.549272
C     -2.571666    0.103851    0.228993
C      2.526915    0.117180   -0.425376
C     -0.301501   -0.675804    1.078632
C     -1.118454   -0.009308    0.342359
C      2.456578   -0.742438    0.773845
C      1.392581    0.813240    0.292134
C     -0.774856   -1.605456    2.127694
N      1.070847   -0.486595    0.840666
O      3.754637    1.798031   -1.624999
O      3.263654   -1.413141    1.450045
O     -1.987775   -1.795010    2.374915
O      0.164538   -2.329542    2.905554
O     -3.321846   -1.002704    0.518374
S     -0.082572    1.057468   -0.730859
Na     0.000000    0.000000    0.000000
Na     0.000000    0.000000    0.000000
O     -0.003044    0.395086   -0.000000
O     -0.001792    0.389505   -0.000000
O     -0.002529    0.378042   -0.000000
O     -0.006216    0.402544   -0.000000
O     -0.003498    0.384764   -0.000000
H      3.147014   -1.418745   -0.318937
H      4.704683   -1.828827    0.569781
H      3.113033   -1.920506    1.405413
H     -3.871898   -0.121151    2.187767
H     -5.119583   -0.790822    1.018480
H     -3.404667   -1.714404   -0.205383
H     -2.208716   -1.179399    1.089928
H     -4.986607    0.976813   -0.450113
H     -4.693109    1.895910    1.114404
H      3.820069    0.172071    2.164529
H     -2.922145    0.108922   -1.575336
H      2.479657    1.865908    0.892187
H      1.418324   -1.058280    0.687843
H      4.906175    1.611882    0.458562
H      5.744371    0.355100    0.093269
H      5.405444   -0.037918   -1.641498
H      4.657148   -1.029125   -0.382836
H     -4.853754   -0.500807   -2.033372
H     -4.865920    1.107952   -1.207105
H     -2.578360    1.177121   -1.676027
H     -2.480048   -0.670996   -1.756527
H     -5.017869    0.131952    0.852440
H     -5.286119   -1.453146   -0.034965
H      3.882583    1.566652    0.364653
H     -3.013425    0.980357    0.710229
H      2.166210   -0.341690   -1.353551
H      1.649001    1.604103    0.988521
H      3.305312    2.629601   -1.395583
H      0.795900   -0.196455    0.000000
H     -0.792856   -0.198631   -0.000000
H      0.805584   -0.194138    0.000000
H     -0.803792   -0.195367   -0.000000
H      0.809652   -0.188159    0.000000
H     -0.807123   -0.189883   -0.000000
H      0.792811   -0.198957    0.000000
H     -0.786595   -0.203587   -0.000000
H     -0.796326   -0.193681   -0.000000
H      0.799824   -0.191083    0.000000
