70

C     10.246350   -0.096114   -0.900054
C     10.201860    1.198518    1.299531
C     -6.428435   -1.225786    1.937560
C     -5.485209   -2.737301    0.286469
C     -5.861559    1.686252    1.167060
C      8.303406   -0.113878    0.575548
C      1.082185    0.074896   -0.136519
C      2.094138    0.688034   -0.724796
C      7.564876   -1.002364   -0.352587
C     -7.571060    0.194131   -0.784216
C     -6.417420    1.045238   -1.188784
C     -1.321557   -0.124914    0.369049
C      4.453513    0.958814   -1.266465
C      3.841860   -0.864369    0.114524
C     -0.653978    1.660109   -1.010331
C     -3.724413   -0.489594    0.988371
C      9.515427    0.292662    0.316752
C     -0.285998    0.556358   -0.274834
C      3.472163    0.240891   -0.612739
C     -2.639675    0.250245    0.298394
C      6.176722   -0.510840   -0.482906
C      5.809151    0.580255   -1.199842
C      5.167348   -1.226542    0.173688
C     -1.982635    2.085571   -1.115483
C     -4.936660   -0.381840    0.093260
C     -7.244814   -1.190275   -0.362046
C     -2.956350    1.352516   -0.443786
C     -6.020816   -1.313986    0.503825
C     -5.365146    1.044194   -0.103028
O      6.742137    1.353070   -1.882842
O      5.546626   -2.349878    0.912346
O     -2.294557    3.206335   -1.871852
O     -8.326556   -1.689754    0.374137
O     -4.254533    1.781007   -0.555434
H      9.709324    0.076987   -1.837800
H     11.256317    0.413985   -0.951701
H     10.538495   -1.191798   -0.813425
H      9.565551    1.393763    2.188976
H     10.356556    2.163448    0.734266
H     11.150674    0.777905    1.660109
H     -7.235682   -0.456184    2.119417
H     -5.601097   -1.147678    2.654995
H     -6.944584   -2.200373    2.184529
H     -4.971627   -2.846258   -0.667976
H     -4.860769   -3.043120    1.166591
H     -6.397571   -3.385120    0.279367
H     -5.469891    2.736164    1.240767
H     -6.965671    1.791939    1.202307
H     -5.481410    1.179664    2.085534
H      7.831288    0.221703    1.512450
H      1.241797   -0.799988    0.462883
H      1.926880    1.586342   -1.339955
H      8.022682   -1.015436   -1.367096
H      7.546118   -2.051074    0.021223
H     -8.203331    0.745553   -0.032742
H     -8.248586    0.114998   -1.685615
H     -6.788843    2.043845   -1.442686
H     -5.931089    0.638911   -2.103920
H     -1.050487   -1.001263    0.956400
H      4.218012    1.828340   -1.846391
H      3.087250   -1.441421    0.635142
H      0.086975    2.242907   -1.539307
H     -3.853035   -0.043585    1.974010
H     -3.425579   -1.558383    0.996542
H     -4.582776   -0.731792   -0.922944
H     -7.153976   -1.861623   -1.256242
H      7.701572    1.108318   -1.839754
H      4.900073   -2.919701    1.412401
H     -3.270063    3.475353   -1.918280
H     -9.149890   -1.776989   -0.201913
