62

C     -2.640261    2.556950    0.951710
C      6.965990   -0.063285    2.770946
C      5.735144   -0.229369    2.153517
C      8.087861    0.080882    2.010673
C      3.167537    0.158157    0.927607
C     -5.478782   -1.403815   -0.213445
C      1.868321    0.095498    0.438327
C      0.258623   -0.554425   -1.323089
C     -4.979416   -1.818079    1.125825
C     -0.768694   -0.011207   -0.707910
C      6.729840   -0.111636    0.021883
C     -4.885988    0.360638   -1.819127
C     -2.685622   -2.073675    0.099483
C      3.926097   -0.995133   -0.958179
C     -3.378108    2.044510   -0.199695
C      5.580229   -0.256971    0.775410
C     -4.392814   -0.840403   -1.106877
C      4.240735   -0.393690    0.227024
C      7.979716    0.056526    0.634184
C      1.610539   -0.518378   -0.757769
C     -3.702862   -2.618017    1.092341
C     -2.150443    0.027664   -1.159184
C     -3.155754   -0.678840   -0.277662
C     -3.853480    1.309569   -2.302478
C     -2.673620    1.426369   -1.341015
C     -4.403505    2.702538   -2.101431
C      9.222240    0.229157   -0.144336
F      9.716188    1.504434    0.123046
F      9.026503    0.103439   -1.497024
F     10.141130   -0.720178    0.315857
N      2.634965   -1.055480   -1.441153
O     -3.136075   -2.506411    2.367123
O     -5.145356    3.351102   -2.878521
O     -3.954994    3.187536   -0.888549
H     -2.581349    3.685151    0.994572
H     -1.649677    2.208216    1.181858
H     -3.253245    2.326240    1.879680
H      7.036715   -0.045971    3.858975
H      4.855285   -0.349165    2.761770
H      9.033632    0.210002    2.520723
H      3.379152    0.647396    1.868898
H     -5.987992   -2.277545   -0.670156
H     -6.275230   -0.636075   -0.042033
H      1.123736    0.557574    1.075964
H      0.049705   -1.034813   -2.271249
H     -5.749681   -2.522097    1.550509
H     -4.951649   -0.972071    1.857366
H     -0.539362    0.452285    0.235154
H      6.642410   -0.133236   -1.039513
H     -5.700022    0.835857   -1.202592
H     -5.457119   -0.001892   -2.728542
H     -2.655559   -2.691379   -0.811517
H     -1.695303   -1.954348    0.581201
H      4.731824   -1.439273   -1.539353
H     -4.300567    1.484585    0.099546
H     -4.168115   -1.648594   -1.861287
H     -3.899859   -3.700499    0.933769
H     -2.218016   -0.470926   -2.150243
H     -3.298371   -0.158895    0.687623
H     -3.525006    1.162940   -3.348664
H     -1.945359    2.117028   -1.773470
H     -2.506860   -1.747627    2.433499
