62

C     -3.481186   -3.728024   -1.013657
C      7.707272   -1.931077   -0.258547
C      6.343989   -1.932998   -0.565167
C      8.349739   -0.793405    0.164632
C      3.765205    0.567094   -1.227249
C     -5.117526    1.655202    0.968228
C      2.439356    0.798363   -1.300177
C      0.049407    0.232773   -0.960595
C     -4.423001    2.653378    1.869076
C     -0.888899   -0.505525   -0.398296
C      6.301967    0.366007   -0.014255
C     -4.717566    0.575775   -1.281909
C     -2.200992    1.587448    1.265748
C      3.240058   -1.494202   -0.209904
C     -3.166998   -2.495436   -0.153630
C      5.652744   -0.801487   -0.444443
C     -4.153252    1.277489   -0.105254
C      4.203841   -0.643957   -0.649568
C      7.656327    0.369744    0.293426
C      1.487491   -0.094828   -0.833426
C     -3.084289    2.188559    2.332370
C     -2.306368   -0.179381   -0.540137
C     -3.010505    0.510308    0.546437
C     -4.574076   -0.917127   -1.187312
C     -3.127564   -1.305486   -1.088052
C     -5.247062   -1.538110   -0.046662
C      8.313718    1.606798    0.761483
F      7.323906    2.533380    1.108886
F      9.173996    2.148243   -0.152583
F      9.022177    1.391062    1.944527
N      1.932602   -1.239764   -0.292962
O     -2.422405    3.324197    2.833634
O     -6.447525   -1.432091    0.245020
O     -4.307020   -2.294132    0.681037
H     -2.993420   -4.627020   -0.592970
H     -4.584804   -3.926479   -1.014030
H     -3.156952   -3.569184   -2.061013
H      8.241831   -2.864025   -0.356931
H      5.830127   -2.844989   -0.888569
H      9.419697   -0.791953    0.413974
H      4.522397    1.243750   -1.579147
H     -5.523136    0.793495    1.507093
H     -5.995362    2.210641    0.537756
H      2.083704    1.698215   -1.748075
H     -0.201304    1.114798   -1.533778
H     -4.440330    3.650798    1.400026
H     -5.077146    2.738638    2.778705
H     -0.570728   -1.384338    0.161185
H      5.760838    1.287091    0.068415
H     -5.780534    0.836254   -1.464517
H     -4.168424    0.909345   -2.196410
H     -1.972573    2.427146    0.551625
H     -1.293551    1.222968    1.721831
H      3.579182   -2.453109    0.221211
H     -2.237926   -2.626306    0.435978
H     -3.693184    2.252501   -0.492220
H     -3.188704    1.519031    3.220912
H     -2.343564    0.601115   -1.426789
H     -3.388289   -0.139454    1.356629
H     -4.943919   -1.408267   -2.130886
H     -2.709256   -1.571467   -2.066723
H     -1.462231    3.242018    2.886003
