80

C     -1.812227   -7.186097   -2.735509
C     -2.651058   -7.184742    2.955822
C      3.472975    9.811260   -0.308622
C      3.677681    1.710899    3.449118
C     -2.574432   -6.364044   -1.931828
C     -0.816784   -6.625845   -3.506171
C     -1.712119   -7.135510    1.927420
C     -2.997525   -5.988683    3.573981
C      2.587293    9.699966    0.751439
C      3.646702    8.656967   -1.051944
C      2.417585    1.296063    3.834755
C      3.992599    1.721558    2.089887
C     -2.319539   -5.027600   -1.927095
C     -0.575082   -5.242472   -3.480992
C     -1.179247   -5.921998    1.578283
C     -2.438452   -4.787280    3.192489
C      1.944744    8.524430    1.020302
C      3.003102    7.470509   -0.785058
C      1.490842    0.903670    2.918132
C      3.056111    1.324427    1.165255
C     -1.111785   -3.012607   -2.641997
C     -0.962583   -3.428840    1.813016
C      1.417099    6.183716    0.623081
C     -2.366940    1.572654   -2.715843
C     -0.204247   -2.312738   -3.283949
C     -0.080987   -3.242115    0.837282
C      1.468766    5.048348   -0.037778
C     -3.476595    1.292211   -2.088502
C     -1.332104   -4.429060   -2.684602
C     -1.504408   -4.731362    2.171290
C      2.130049    7.392984    0.272241
C      1.813259    0.918589    1.587772
C     -1.054619    1.223596   -2.025131
C     -0.135826   -0.834794   -3.105761
C      0.466154   -1.945016    0.468498
C      0.685451    3.922195    0.453303
C     -3.493930    0.673077   -0.755903
C      0.774239    0.468815    0.570698
C     -1.285492    1.446883   -0.578013
C     -0.132547    1.586856    0.323312
O      0.729838   -0.164451   -3.710668
O      1.305161   -1.913674   -0.494649
O     -0.012408    4.018857    1.492203
O     -4.573507    0.410128   -0.209853
O     -1.010500   -0.198340   -2.288109
O      0.181522   -0.735848    1.041126
O     -2.219227    0.417549   -0.189598
O      0.651211    2.684181   -0.181668
H     -2.046370   -8.243185   -2.713665
H     -3.076243   -8.135342    3.239363
H      3.978369   10.740779   -0.513637
H      4.379668    2.015173    4.217862
H     -3.358378   -6.775353   -1.317750
H     -0.244593   -7.311134   -4.114290
H     -1.434221   -8.069633    1.438588
H     -3.741644   -6.078458    4.378819
H      2.435125   10.587298    1.346956
H      4.333993    8.729312   -1.881793
H      2.146214    1.277422    4.868548
H      4.960532    2.039497    1.791843
H     -2.922121   -4.366362   -1.295908
H      0.224668   -4.883613   -4.117896
H     -0.455189   -5.918629    0.777071
H     -2.746088   -3.899027    3.707406
H      1.266507    8.497649    1.856697
H      3.187550    6.609682   -1.403827
H      0.511440    0.581724    3.235536
H      3.293840    1.332093    0.087647
H     -1.779471   -2.410837   -2.000862
H     -1.256985   -2.527458    2.332004
H      0.768657    6.193012    1.519184
H     -2.375507    2.037033   -3.692400
H      0.470612   -2.809443   -3.923784
H      0.238826   -4.110585    0.292635
H      2.084262    4.980162   -0.917733
H     -4.426689    1.535035   -2.593179
H     -0.237206    1.763871   -2.501429
H      1.372460    0.213316   -0.314364
H     -1.854222    2.429566   -0.466898
H     -0.576009    2.009159    1.287791
