63

C     -9.003448   -0.295782   -0.252961
C      9.507079   -0.005318   -0.378185
C     -0.454274   -1.358853   -0.316223
C     -1.388639   -0.781185    0.688431
C      0.521771   -0.343629   -0.818397
C     -2.193503    0.373805    0.124241
C      1.340596    0.183695    0.333560
C     -3.010037   -0.065949   -1.044122
C      2.320173    1.193244   -0.242289
C     -3.972406   -1.140060   -0.667349
C      3.155088    1.745501    0.869878
C     -7.065336    0.373827    1.064140
C     -6.215074   -0.110467   -0.088562
C      4.587726   -0.959646   -0.392165
C      6.884639   -0.974944   -0.938260
C     -8.367091    0.877642    0.468366
C     -4.899936   -0.632964    0.379113
C      5.613350   -1.422928   -1.182473
C      4.768190   -0.071566    0.628014
C      3.894464    0.632795    1.581422
C      7.102695   -0.066958    0.101781
C      6.063201    0.377121    0.874505
C      6.058107    1.232519    2.054560
O     -8.037692    1.875341   -0.438002
O     -4.615056   -0.636484    1.569098
O      5.373342   -2.313165   -2.193116
O      7.054034    1.826255    2.576727
O      8.378665    0.402353    0.371299
O      4.775226    1.283440    2.505841
H     -8.636225   -0.326561   -1.300124
H     -8.743624   -1.205522    0.326084
H    -10.107137   -0.197513   -0.309533
H     10.406273    0.261504    0.233347
H      9.608972    0.568419   -1.334146
H      9.527913   -1.097684   -0.540851
H     -0.971305   -1.840788   -1.173272
H      0.156829   -2.148213    0.209638
H     -2.071022   -1.554300    1.131924
H     -0.812410   -0.400672    1.550458
H      0.017875    0.535248   -1.275101
H      1.203467   -0.762529   -1.603490
H     -2.886052    0.767095    0.900114
H     -1.522464    1.215749   -0.142217
H      1.813732   -0.668418    0.817382
H      0.687736    0.792205    1.014942
H     -2.393268   -0.326078   -1.934972
H     -3.606343    0.834112   -1.375994
H      2.868579    0.739218   -1.056653
H      1.674528    2.017416   -0.684338
H     -3.485499   -2.044052   -0.249796
H     -4.533096   -1.428679   -1.584505
H      3.882692    2.456220    0.383527
H      2.523855    2.316674    1.612560
H     -6.516280    1.191985    1.585488
H     -7.262087   -0.483219    1.752562
H     -6.741349   -0.915891   -0.602477
H     -5.996685    0.770770   -0.719867
H      3.608674   -1.361327   -0.609956
H      7.744195   -1.290779   -1.516169
H     -9.046829    1.239213    1.266072
H      3.221100   -0.025679    2.130927
H     -7.830837    1.521704   -1.326752
H      6.040238   -2.703553   -2.813685
