30

C      3.338533    2.690435    2.290158
C     -2.245135   -2.037448   -2.524419
C      2.925207    1.620598    1.855130
C      0.136901    0.204529    1.816950
C      1.328009   -0.127474    2.162200
C     -1.156654   -0.470895   -0.944572
C      3.538228   -0.628367    1.132477
C     -2.268258   -0.822936   -1.688822
C     -0.033665    1.041899    0.612595
C     -3.416233   -0.045852   -1.663054
C     -2.282133    1.374965   -0.164240
C      2.441542    0.348461    1.332601
N     -3.383366    1.054712   -0.881721
N     -1.163517    0.631263   -0.180039
O      3.135414   -1.846822    0.641105
O     -4.551847   -0.378640   -2.404922
O     -2.309301    2.425155    0.555127
S      1.540778    0.716977   -0.227516
H      3.698988    3.619634    2.656035
H     -1.833444   -2.868928   -1.898526
H     -1.548062   -1.916191   -3.372687
H     -3.253256   -2.269265   -2.924810
H     -0.765673   -0.121723    2.400145
H      1.549189   -0.754108    3.055148
H     -0.257371   -1.062766   -0.953019
H      4.023207   -0.796262    2.116275
H      4.355390   -0.183214    0.493926
H     -0.045558    2.128048    0.842175
H      3.404225   -1.895397   -0.323837
H     -4.902139    0.369613   -3.010930
