29

C     -4.223218    0.348352    0.859023
C     -3.517759   -0.840596    0.832345
C     -3.550604    1.496293    0.529014
C     -2.186803   -0.901504    0.490690
C     -2.211514    1.435817    0.185164
C      4.044469   -0.642573    0.872202
C      2.970502   -1.295016    0.468334
C      1.650871   -0.630423   -1.521844
C     -1.494034    0.259156    0.153679
C      0.161785   -0.404575   -1.570746
C      3.770008    0.764452    0.626975
C     -0.081061    0.272191   -0.219879
C      1.964786   -0.381017   -0.047483
O     -0.219573    0.424757   -2.612843
O      4.601208    1.688497    0.901742
O      2.508632    0.889914    0.072149
O      0.724246   -0.502148    0.607496
H     -5.269305    0.417229    1.124731
H     -4.047326   -1.730662    1.090357
H     -4.106904    2.437240    0.549613
H     -1.621808   -1.826453    0.465664
H     -1.685052    2.347475   -0.074910
H      4.969356   -1.040071    1.306592
H      2.879147   -2.372240    0.526175
H      2.120993    0.144356   -2.165455
H      1.940334   -1.658608   -1.798030
H     -0.377384   -1.358982   -1.554189
H      0.290278    1.304207   -0.208265
H     -0.004269    1.354931   -2.325940
