48

C      6.177176   -0.699080    3.357094
C     -5.370244   -1.673610    2.140789
C      5.760840   -1.778414    2.636575
C      5.584950    0.516504    3.073712
C     -5.440373   -1.882859    0.780147
C     -4.546749   -0.667038    2.598027
C      4.774893   -1.666048    1.649569
C      4.616632    0.632894    2.105979
C     -4.711045   -1.112667   -0.112516
C     -3.822471    0.096269    1.694947
C      3.149803   -0.280058    0.346416
C      0.656865    1.410813   -3.567729
C      2.686438   -1.250250   -0.393194
C      0.513271    2.695309   -3.343103
C      4.184220   -0.457320    1.365939
C     -3.884871   -0.104154    0.331943
C      0.075937    0.435451   -2.632327
C      1.641130   -1.006961   -1.406158
C     -0.218611    3.209019   -2.178371
C     -3.084252    0.749910   -0.549927
C     -1.832260    0.065555   -1.054732
C     -1.144448    1.035479   -1.992555
O      1.231958   -1.976379   -2.089639
O     -0.333827    4.432681   -1.990074
O     -3.901507    1.143501   -1.612310
O     -1.028556   -0.321213   -0.001936
O      1.096935    0.228016   -1.634777
O     -0.754980    2.220172   -1.328085
H      6.943322   -0.798868    4.120702
H     -5.955005   -2.294783    2.817482
H      6.197507   -2.764227    2.821389
H      5.916664    1.373786    3.647062
H     -6.098035   -2.684594    0.437851
H     -4.494995   -0.506661    3.665852
H      4.485805   -2.549670    1.113096
H      4.183439    1.591791    1.917493
H     -4.794816   -1.308442   -1.158156
H     -3.186149    0.879973    2.111566
H      2.715206    0.713139    0.165719
H      1.190340    1.049426   -4.421294
H      3.073914   -2.244975   -0.261527
H      0.967646    3.367214   -4.069461
H     -0.147013   -0.539277   -3.125082
H     -2.764985    1.659478   -0.007058
H     -2.065943   -0.840041   -1.651634
H     -1.902488    1.300656   -2.751475
H     -4.832612    1.150440   -1.304150
H     -1.508657   -0.549888    0.817209
