48

C     -2.145420   -3.423555   -0.524289
C      5.710203   -0.328009    2.397602
C     -3.444626    3.733120    1.338662
C      6.470009   -0.986864    1.426350
C     -4.501162    2.888759    1.608542
C      4.405757   -0.003701    2.097910
C     -2.393270    3.307659    0.556803
C      5.909259   -1.295705    0.204620
C     -4.465536    1.626241    1.075899
C     -0.124293    0.886441   -0.084838
C      2.755034   -0.929230   -1.538500
C     -2.595592   -2.149324   -1.181741
C      3.859161   -0.318252    0.874089
C     -2.333779    2.044291    0.009961
C      4.599819   -0.967909   -0.090742
C     -3.410278    1.200562    0.291712
C      0.653612    0.014540   -0.994463
C     -3.623524   -1.424297   -0.396429
C      2.542804   -0.000608    0.548187
C     -0.116140   -1.246263   -1.203171
C     -2.165546    0.105713   -1.329926
C     -1.398570    1.286034   -0.840506
N      4.032522   -1.259133   -1.274993
N      1.983936   -0.287349   -0.618079
N     -1.517007   -1.158480   -1.232148
N     -3.228580   -0.060209   -0.323756
O     -4.657146   -1.924661    0.113017
O      1.864581    0.585401    1.409980
O      0.441185   -2.351549   -1.349279
O     -0.977789    2.030772   -1.940447
H     -1.549246   -3.991855   -1.260032
H     -1.541926   -3.228453    0.381132
H     -3.055524   -4.025450   -0.316251
H      6.186364   -0.104289    3.341095
H     -3.479350    4.725060    1.761073
H      7.491793   -1.247230    1.645647
H     -5.340853    3.221828    2.230249
H      3.803643    0.498223    2.818359
H     -1.583492    3.992243    0.365132
H      6.500995   -1.804217   -0.540546
H     -5.314347    0.969146    1.301344
H      0.397612    1.850499    0.107594
H     -0.384632    0.342748    0.848476
H      2.359282   -1.195881   -2.519451
H     -2.999311   -2.361216   -2.181962
H      0.658046    0.515194   -2.008356
H     -2.679789    0.283743   -2.301561
H     -1.598889    1.965474   -2.701969
