31

C     -0.064805    0.396504   -0.826456
C     -1.492009    0.142337   -0.353674
C      0.679360    0.234814    0.475121
C     -1.266059   -0.802145    0.781538
C      2.091215   -0.165893    0.241599
N     -0.069037   -0.719570    1.203071
O     -2.310242   -1.630343    1.245265
O      2.517074   -1.314745    0.455128
O      2.945096    0.818413   -0.238484
C     -0.663619   -1.175833   -0.340685
C     -1.133425   -0.217867    0.742502
C      0.524115   -0.423678   -0.876491
C     -0.905534    1.090645    0.029362
C      1.702200   -0.497979   -0.018239
N      0.017752    0.932392   -0.856541
O     -1.609566    2.244117    0.325908
O      2.379898   -1.542693    0.181254
O      2.144864    0.631502    0.644105
Mn     0.000000    0.000000    0.000000
H      0.040783    1.448983   -1.162572
H      0.257235   -0.329244   -1.593453
H     -1.965869    1.075257   -0.047812
H     -2.008023   -0.371563   -1.181530
H      0.645280    1.217194    1.002259
H     -1.445875   -1.157602   -1.130520
H     -0.450149   -2.170716    0.024359
H     -2.192103   -0.393138    0.950020
H     -0.491629   -0.224039    1.628494
H      0.718436   -0.781792   -1.908160
H     -1.703342    2.962717   -0.388059
H      3.107976    0.723963    0.992690
