31

C      0.003668   -0.931088   -0.440941
C      1.223481   -0.543105    0.330926
C     -0.749707    0.398772   -0.563283
C      1.355587    0.905803    0.055342
C     -1.799132    0.464332    0.466516
N      0.274643    1.371560   -0.423335
O      2.535368    1.667860    0.295935
O     -2.846680   -0.237858    0.253353
O     -1.724871    1.219274    1.621758
C      0.003889   -1.093544   -0.201685
C     -1.486635   -0.822504    0.054444
C      0.611538    0.130654    0.371961
C     -1.531974    0.670960    0.035897
C      1.918993    0.491976   -0.227556
N     -0.370448    1.159287    0.211661
O     -2.704352    1.433875   -0.151207
O      2.001163    1.616702   -0.782889
O      3.027705   -0.306228   -0.217072
Mn     0.000000    0.000000    0.000000
H     -0.617445   -1.700876    0.060669
H      0.284197   -1.278274   -1.462475
H      2.120395   -1.103722   -0.048149
H      1.134646   -0.715038    1.427899
H     -1.194150    0.482361   -1.574216
H      0.214382   -1.294048   -1.250700
H      0.275131   -1.961990    0.460962
H     -2.098559   -1.152302   -0.817021
H     -1.811893   -1.248893    1.009233
H      0.754013    0.002320    1.477574
H     -2.796194    2.330371    0.351026
H      3.993240    0.043363   -0.324630
