178

C    -19.288955    1.688017    0.964734
C      4.586004    1.344100    1.954262
C     -5.154096   -3.236769    0.673733
C     -1.822669    2.327583   -0.980473
C      7.845972   -1.785747   -2.836039
C     13.033312    0.692236   -3.209294
C    -12.669619    1.296505   -1.021960
C     -5.712771    1.855612   -2.100588
C      8.365744   -0.046604    2.063781
C     -2.280100    0.237775    3.925797
C     12.803265   -4.115024   -0.586402
C    -12.876169    0.188048    2.181285
C    -14.342051   -0.013861    2.261336
C    -16.327443   -1.070732   -1.251180
C    -14.947740   -0.546628   -1.474376
C    -17.532168    1.498203   -2.214212
C    -18.315163    2.632259   -2.355789
C    -10.721005    0.390655    1.042306
C      1.883101    1.877071   -0.920238
C     -6.930185    0.362293    0.639588
C      7.290714    1.740471   -0.530756
C     -1.737096   -1.414112    1.044366
C     11.605586   -1.716253   -2.460655
C    -11.917999   -1.031024   -1.047174
C     16.592451    2.470281    1.732021
C    -18.683396    1.792467   -0.380862
C      3.605172    1.694710    0.826463
C     -5.769351   -1.883634    0.776935
C     -1.989490    1.075581   -0.144067
C      7.554248   -0.766142   -1.780224
C     12.986305    0.363834   -1.762973
C    -12.205202    0.182727    1.062259
C    -17.755563    0.960769   -0.972625
C    -17.165428   -0.235149   -0.338060
C    -14.926748    0.304587    0.873346
C    -14.205525   -0.501889   -0.150419
C      2.790232    0.692894   -1.248223
C    -11.021452   -1.805903   -0.098883
C    -10.071415   -0.934493    0.634000
C     -5.958934    0.163047   -0.537361
C      8.394905    0.800728   -0.079780
C     -1.341065   -0.171125    1.831480
C     12.844974   -2.129202   -1.685528
C     16.575594    1.093182    1.096595
C      1.296452    1.705813    0.453117
C     -7.807492   -0.864096    0.765548
C      6.166995    0.872439   -1.008522
C     -2.713624   -1.051728   -0.047158
C     10.883212   -0.564873   -1.903515
C    -16.394492    0.018832    0.883910
C     17.332403    0.072535    1.911608
C     16.410337   -1.016796    2.408018
C     15.742983   -1.673771    1.214666
C      3.995442    0.839146   -0.371331
C     -0.875302    0.920148    0.892328
C     -5.018383   -0.934010   -0.174195
C      8.780675   -0.040066   -1.289327
C     13.724488   -0.953291   -1.424587
C     15.241990   -0.608941    0.297418
C    -12.800160   -0.031250   -0.309520
O     17.873895    2.938898    1.945079
O      3.173605    0.843965   -2.574422
O    -11.719165   -2.632014    0.761962
O    -16.918768    0.010737    1.995699
O     18.418183   -0.406183    1.226219
O     15.487379   -0.543059    3.324521
O     16.692565   -2.444501    0.518097
O     -5.313107    1.358866   -0.838501
O      7.770974   -0.086251    0.817816
O     -2.435140    0.250387    2.566151
O     12.408411   -2.777482   -0.528156
O    -18.978296    2.766392   -1.248523
O      2.359178    1.350248    1.306722
O     -7.079135   -1.974069    0.243648
O      6.558179    0.161450   -2.169600
O     -2.123551   -0.053624   -0.888697
O     11.741379    0.322320   -1.195855
O     -8.905651   -0.665341   -0.032691
O     15.271490    0.666262    0.893409
O      4.963299    1.506020   -1.098941
O      0.357702    0.710626    0.380083
O     -3.865719   -0.495473    0.423376
O      9.859340   -0.842225   -1.009388
O     13.916705   -0.846104   -0.027996
H    -19.447076    0.640865    1.263872
H    -20.254900    2.251162    0.970958
H    -18.581294    2.154049    1.683588
H      5.385035    2.077629    2.058022
H      4.033967    1.230755    2.939136
H      4.981095    0.326597    1.771204
H     -5.887362   -4.049196    0.894168
H     -4.732988   -3.361837   -0.356877
H     -4.285537   -3.319767    1.355977
H     -1.320173    2.078260   -1.962411
H     -2.805108    2.773304   -1.279968
H     -1.280420    3.118746   -0.428262
H      6.904890   -2.130225   -3.299986
H      8.521598   -1.361849   -3.607183
H      8.360727   -2.682323   -2.444263
H     13.620415   -0.052950   -3.797643
H     12.029859    0.854616   -3.643627
H     13.580951    1.663466   -3.396299
H    -12.200443    2.076038   -0.357751
H    -12.075683    1.200895   -1.969775
H    -13.637562    1.734247   -1.316920
H     -6.814566    2.029424   -2.090983
H     -5.114310    2.742108   -2.346992
H     -5.524682    1.109238   -2.892951
H      8.283391    0.997855    2.478303
H      9.453100   -0.300443    2.054527
H      7.863240   -0.693858    2.791156
H     -2.057500   -0.776605    4.304677
H     -3.266711    0.578664    4.350366
H     -1.542652    0.945262    4.324860
H     12.448112   -4.608282    0.336220
H     13.875670   -4.246744   -0.733187
H     12.270821   -4.643447   -1.430279
H    -12.311250    0.352366    3.105574
H    -14.562167   -1.074824    2.539140
H    -14.775746    0.701188    2.983569
H    -16.215295   -2.079277   -0.777081
H    -16.845182   -1.289180   -2.218384
H    -14.874252    0.387084   -2.031218
H    -14.427743   -1.310697   -2.109002
H    -16.867160    1.119134   -2.972149
H    -18.357079    3.286865   -3.243781
H    -10.513006    1.185292    0.309047
H    -10.409716    0.731195    2.031951
H      1.088210    1.987760   -1.701310
H      2.460380    2.815943   -0.946506
H     -6.370562    0.490113    1.580633
H     -7.558914    1.220412    0.347624
H      7.739564    2.371383   -1.343000
H      7.014814    2.358189    0.339461
H     -2.241628   -2.101064    1.740900
H     -0.849038   -1.931133    0.644612
H     10.929425   -2.625998   -2.415121
H     11.840660   -1.642937   -3.553445
H    -11.334388   -0.548829   -1.851010
H    -12.586566   -1.775951   -1.509055
H     15.975722    2.529188    2.637405
H     16.105080    3.146851    0.979699
H      3.692613    2.752840    0.629491
H     -5.819168   -1.460562    1.777845
H     -2.908856    1.219509    0.463248
H      7.104305   -1.283260   -0.905788
H     13.561159    1.152237   -1.205856
H    -18.047881   -0.888108   -0.036498
H    -14.732112    1.379236    0.699694
H    -14.157644   -1.549067    0.215817
H      2.237022   -0.246365   -1.073356
H    -10.416911   -2.482400   -0.764052
H     -9.813011   -1.393984    1.621663
H     -6.615565   -0.061961   -1.402774
H      9.233950    1.334892    0.374821
H     -0.526338   -0.447270    2.508330
H     13.385265   -2.867479   -2.327732
H     17.067305    1.176526    0.111420
H      0.930616    2.678621    0.817437
H     -8.083458   -1.066844    1.802259
H      6.055831    0.021362   -0.269906
H     -2.822878   -1.894976   -0.748247
H     10.449353    0.096036   -2.701854
H     17.723004    0.610972    2.819900
H     17.017747   -1.794566    2.924306
H     14.955792   -2.389861    1.535758
H      4.430360   -0.096604    0.016379
H     -0.898774    1.880697    1.423875
H     -4.821835   -1.594496   -1.058625
H      9.018272    0.693192   -2.115437
H     14.654278   -0.910133   -1.989744
H     15.823143   -0.602263   -0.652282
H     18.186244    3.594874    1.265639
H      2.947494    0.076628   -3.146136
H    -11.716387   -3.586304    0.440685
H     18.376295   -0.155708    0.265564
H     15.877089    0.292160    3.724581
H     17.247561   -2.977571    1.126492
