81

C      2.570970   -2.543495   -0.528091
C      8.099710    2.506140   -0.140843
C      7.451665    2.712115    1.065654
C      7.413273    2.539881   -1.322131
C     -3.769403    2.354280    2.142437
C     -4.753732    1.236264    2.486896
C      0.356102   -5.584467    1.518712
C      3.340238    1.774864   -0.077395
C     -5.670143    2.054006   -3.403000
C      6.075857    2.955397    1.041606
C      6.033921    2.784561   -1.320457
C      3.916119    3.195432   -0.135814
C      0.388546   -4.214031    1.421345
C      0.142860   -6.386277    0.421019
C     -4.876268    1.706168   -2.411254
C     -3.854216    2.590614    0.672334
C     -5.699096    1.274288    1.278988
C      1.843321    1.789092   -0.088081
C     -6.978044    2.446713   -3.181581
C     -0.008176   -4.349870   -0.897806
C     -0.592431    0.374572    1.397226
C     -1.094317   -1.573101   -0.145872
C      0.891641   -1.507029    1.376380
C      1.614150   -0.356363   -1.129698
C      1.291181   -1.810788   -0.963831
C      5.388279    2.988178   -0.135202
C      0.208326   -3.585876    0.223258
C     -1.363333   -0.131357    0.183352
C      0.876379   -0.026926    1.163746
C     -0.035837   -5.729394   -0.776312
C     -5.283506    1.709335   -1.117181
C     -3.860941    0.149489    0.116060
C     -4.695447    1.409729    0.171616
C      0.264956   -2.084629    0.098641
N     -2.677479    0.218754    0.161417
N      1.388828    0.449035   -0.031141
O     -0.253000   -6.505780   -1.920186
O     -4.583039   -1.031241    0.008267
S     -7.039455    2.287294   -1.347772
H      3.176579   -1.774234    0.036317
H      2.376085   -3.440660    0.055993
H      3.205921   -2.760037   -1.422427
H      9.153663    2.313274   -0.168938
H      7.977187    2.687578    2.008327
H      7.862112    2.385201   -2.295370
H     -2.745679    2.026682    2.415597
H     -3.965518    3.270162    2.756521
H     -5.269789    1.383074    3.439316
H     -4.235053    0.258553    2.395315
H      0.496659   -6.089909    2.472459
H      3.745167    1.233406   -0.965535
H      3.672104    1.294945    0.881457
H     -5.346292    2.063067   -4.499203
H      5.546207    3.120161    1.982980
H      5.479528    2.812488   -2.244006
H      3.548428    3.787782    0.717622
H      3.587067    3.613153   -1.097477
H      0.559319   -3.645866    2.308259
H      0.120011   -7.478250    0.497025
H     -3.801452    1.383023   -2.618587
H     -4.510338    3.484362    0.466958
H     -2.914057    2.714571    0.147574
H     -6.250305    0.315000    1.202931
H     -6.360033    2.140660    1.370646
H      1.480669    2.351750    0.797150
H      1.466413    2.272792   -1.028041
H     -7.751117    2.751563   -3.782147
H     -0.165017   -3.883145   -1.883959
H     -0.918114   -0.068763    2.344213
H     -0.584361    1.473579    1.361747
H     -1.822739   -2.285027    0.322280
H     -1.285682   -1.671774   -1.260192
H      0.146973   -1.722068    2.181244
H      1.855532   -1.966346    1.546003
H      1.093333   -0.015649   -2.060498
H      2.694784   -0.323825   -1.419489
H      0.973567   -2.288274   -1.902993
H     -0.843043    0.440077   -0.674736
H      1.431894    0.429232    2.024458
H     -1.194491   -6.740235   -2.160172
H     -4.154585   -1.937650   -0.123926
