85

C     -5.750069   -3.192014   -1.852896
C     -2.204048    3.560726    0.605818
C      8.037758   -0.886054    0.190183
C      7.594675   -1.965339   -0.577553
C      7.142048   -0.055579    0.828741
C     -8.896457   -2.444629   -0.062743
C     -8.466605   -1.704172    1.016286
C      4.030255   -3.616645    0.954839
C      3.575165   -3.908469   -0.484539
C      0.639811    5.677799    1.286827
C     -3.869465   -1.504119   -0.379492
C     -8.048179   -2.909577   -1.014415
C     -7.151386   -1.405956    1.167843
C     -4.856442   -1.554186    0.480190
C      6.251851   -2.199561   -0.695881
C      5.795669   -0.310755    0.695476
C      0.275219    4.352123    1.306543
C      0.998343    6.225265    0.085059
C      3.475364   -2.181510    1.176900
C      3.423591   -2.579340   -1.136674
C     -2.499008   -1.164109    0.129397
C      0.626562    4.127678   -1.058845
C      0.203337   -0.593807    0.592381
C      0.785245    1.607325    1.382280
C     -0.077039    1.379688   -0.957638
C     -2.479072    1.243342   -0.080354
C     -6.670651   -2.602386   -0.860936
C     -1.599725    2.157981    0.745819
C     -6.230706   -1.870144    0.195889
C      5.355669   -1.394182   -0.074785
C      0.271060    3.588306    0.136579
C      1.405014    0.270609    0.952937
C     -0.514782   -0.035778   -0.623273
C      0.992784    5.469298   -1.063696
C      3.266888   -0.281736   -0.470689
C      3.873170   -1.571450   -0.113570
C     -0.150555    2.154556    0.321333
N      2.342114    0.390157   -0.056395
N     -1.924684    0.000668   -0.430398
O      1.363174    6.048567   -2.279180
O      3.957238    0.317968   -1.601507
H     -5.517333   -2.559481   -2.713879
H     -6.282904   -4.117319   -2.289516
H     -4.839282   -3.627406   -1.401642
H     -1.676547    4.155197   -0.164716
H     -3.259418    3.468763    0.226967
H     -2.278560    4.077066    1.563893
H      9.094069   -0.708459    0.279042
H      8.276098   -2.617072   -1.077896
H      7.499705    0.778370    1.423296
H     -9.941618   -2.665413   -0.157061
H     -9.220248   -1.368546    1.736652
H      5.106868   -3.660279    1.084802
H      3.507762   -4.329656    1.604561
H      2.550279   -4.389129   -0.453533
H      4.207756   -4.634448   -0.993825
H      0.652437    6.292317    2.178231
H     -3.965397   -1.638590   -1.427777
H     -8.326648   -3.488388   -1.869799
H     -6.813583   -0.830580    1.997538
H     -4.600931   -1.341209    1.562170
H      5.910538   -3.025622   -1.289789
H      5.111572    0.353572    1.207817
H     -0.008223    3.918232    2.276511
H      1.293126    7.265683    0.015547
H      3.992152   -1.776241    2.056484
H      2.427883   -2.344941    1.376845
H      2.335533   -2.336541   -1.330207
H      3.935574   -2.476545   -2.104829
H     -1.888048   -2.064343   -0.151842
H     -2.573398   -1.062614    1.228357
H      0.614169    3.514420   -1.943082
H     -0.428512   -0.622666    1.503718
H      0.484439   -1.632779    0.356258
H      1.573479    2.314888    1.692486
H      0.174093    1.383601    2.276732
H      0.845195    1.453393   -1.522394
H     -0.881713    1.793117   -1.617275
H     -2.861416    1.786478   -0.997089
H     -3.400359    1.074174    0.540902
H     -1.718479    1.883338    1.804310
H      1.838040   -0.138539    1.878624
H     -0.297023   -0.654707   -1.522749
H      1.631380    7.013624   -2.310150
H      3.424361    0.944719   -2.218593
