74

C     -4.674649    2.486144    0.590025
C     -2.678340    2.033309   -1.472209
C     10.755146   -0.209879    0.770982
C     10.509462    0.234706   -0.512913
C      9.710136   -0.565609    1.578296
C      9.220140    0.319288   -0.977232
C      8.416454   -0.473506    1.092400
C     -8.114306   -2.013477    0.120942
C     -7.700752   -2.407580   -1.254080
C      5.235541    1.195465   -2.089145
C      4.529393   -0.679129   -0.759679
C      6.488940    1.042736   -1.579375
C      5.817185   -0.809384   -0.257759
C     -1.791364   -0.288985    2.583784
C     -0.458251   -0.101462    2.343166
C      2.903915    0.529585   -2.250967
C     -3.369250   -0.361974   -1.566904
C      2.124265    1.516017   -1.335715
C     -4.737326   -1.007800   -1.454719
C     -0.942788    0.715605    0.147813
C     -4.121360   -0.178490    1.881280
C     -5.604128   -2.348985    0.341665
C     -4.612569    1.190018   -0.143565
C      4.242108    0.309561   -1.662880
C     -6.881216   -2.912602   -0.173600
C      8.154773   -0.034991   -0.177468
C      6.792583    0.061227   -0.676913
C     -2.699722    0.039926    1.570462
C     -0.035180    0.396136    1.137643
C     -2.289444    0.530877    0.378883
C     -5.056021    0.005825    0.714298
C      1.399416    0.594709    0.890707
C     -3.241500    0.881169   -0.700144
N      1.971213    1.019935   -0.093568
N     -5.158572   -1.118331   -0.111220
O      2.241500    0.224794    1.990436
H     -5.486465    2.397082    1.365804
H     -4.982947    3.320887   -0.071758
H     -3.750396    2.718589    1.157280
H     -2.003974    2.672535   -0.846949
H     -2.092325    1.700785   -2.358718
H     -3.460573    2.732256   -1.856254
H     11.773500   -0.265990    1.109196
H     11.335242    0.513361   -1.144054
H      9.881930   -0.914022    2.581069
H      9.008249    0.665577   -1.981940
H      7.591198   -0.754754    1.731302
H     -8.979235   -2.494330    0.626423
H     -7.937083   -0.988660    0.444724
H     -8.427294   -3.141451   -1.722705
H     -7.508773   -1.584007   -1.932911
H      5.025138    1.982803   -2.802930
H      3.731119   -1.351583   -0.449691
H      7.264609    1.734375   -1.911948
H      6.017376   -1.592755    0.449322
H     -2.141747   -0.683246    3.535890
H      0.262144   -0.351557    3.119294
H      2.316185   -0.415447   -2.268877
H      2.950402    0.961804   -3.253534
H     -3.273859   -0.014776   -2.627022
H     -2.547648   -1.064646   -1.406294
H      1.237482    1.867910   -1.911111
H      2.809014    2.439337   -1.329693
H     -5.462362   -0.461029   -2.126168
H     -4.645064   -2.023607   -1.893011
H     -0.562271    1.099690   -0.780073
H     -4.274103   -1.191595    2.306558
H     -4.430713    0.505082    2.740778
H     -4.784976   -3.109648    0.113314
H     -5.602446   -2.366958    1.478999
H     -5.315652    1.230384   -0.999671
H     -7.068823   -3.991539    0.125364
H     -6.048679    0.274203    1.195022
H      3.238390    0.130092    1.823977
