74

C     -3.162775    0.322657    2.142647
C     -2.377288   -2.417144    1.405041
C      9.841592   -0.516640    2.903849
C      9.999115    0.517695    2.014084
C      8.630393   -1.165987    2.976057
C      8.928248    0.888104    1.202648
C      7.570134   -0.788353    2.162467
C     -8.737430    1.015184    0.456120
C     -7.684577    0.975612    1.527195
C      4.271572    0.895335    0.092474
C      5.759377    1.572256   -1.648288
C      5.341676    0.512568    0.882720
C      6.811084    1.183603   -0.842535
C     -1.473402    1.375342   -1.473475
C     -0.215497    0.843642   -1.733711
C      3.313972    1.839861   -2.026354
C     -3.883940   -2.317171   -0.494310
C      2.864265    0.665280   -2.878893
C     -4.857165   -1.557386   -1.321719
C     -0.795986   -1.135908   -0.620810
C     -3.704936    1.230500   -0.525100
C     -6.829539   -0.442302   -0.486420
C     -3.932506   -0.567147    1.198115
C      4.477567    1.421435   -1.164076
C     -7.286913    0.865848    0.115820
C      7.721727    0.243452    1.272568
C      6.629439    0.657596    0.411586
C     -2.389820    0.587746   -0.759600
C      0.156249   -0.404442   -1.323754
C     -2.058721   -0.669524   -0.329578
C     -4.633059    0.322378    0.193188
C      1.476696   -0.946430   -1.605340
C     -3.020644   -1.478667    0.410465
N      2.435106   -0.462285   -2.203052
N     -5.428809   -0.395591   -0.740567
O      1.681124   -2.274296   -1.091908
H     -2.082798    0.349055    1.933768
H     -3.360013   -0.081220    3.175208
H     -3.551657    1.363228    2.156978
H     -3.217512   -2.910287    1.954225
H     -1.813854   -3.228298    0.921707
H     -1.792885   -1.879242    2.180651
H     10.669935   -0.804179    3.532675
H     10.937382    1.048387    1.931942
H      8.549366   -1.980920    3.696364
H      9.027969    1.700460    0.494030
H      6.652191   -1.331554    2.263798
H     -9.180294    2.006326    0.251954
H     -9.438209    0.167841    0.339641
H     -7.752830    0.066440    2.180303
H     -7.480489    1.892902    2.119886
H      3.250217    0.780660    0.466558
H      5.960713    1.986684   -2.642123
H      5.136398    0.104394    1.862153
H      7.829782    1.309677   -1.241467
H     -1.719739    2.361105   -1.816401
H      0.465762    1.488598   -2.291234
H      3.615145    2.673747   -2.692556
H      2.524058    2.204292   -1.367684
H     -3.192201   -2.854612   -1.203930
H     -4.408198   -3.094735    0.092471
H      2.208120    0.994433   -3.713409
H      3.836765    0.374361   -3.429999
H     -4.433082   -1.346288   -2.344593
H     -5.713503   -2.261465   -1.544540
H     -0.557378   -2.127371   -0.273390
H     -4.143073    1.448630   -1.542727
H     -3.578029    2.221557   -0.035418
H     -7.382565   -0.614929   -1.452589
H     -7.108348   -1.294275    0.188958
H     -4.684047   -1.184109    1.695049
H     -6.792587    1.747271   -0.354004
H     -5.332711    0.954873    0.816102
H      2.615869   -2.648254   -1.123874
