81

C      1.778760   -3.479622    0.798218
C      6.515191    3.766946   -0.664170
C      6.652474    2.635276   -1.433328
C      6.041884    3.651988    0.622197
C     -4.825860    4.242815    1.211299
C     -3.801070    4.641341    0.185614
C     -1.982609   -5.182304   -0.549825
C      4.102503   -0.511345    0.604538
C      6.322524    1.382244   -0.932407
C      5.719879    2.401184    1.100843
C      5.514831   -0.062499    0.906720
C     -1.501562   -3.947654   -0.158302
C     -1.337973   -5.852637   -1.570124
C     -6.000807    0.797623   -0.638059
C     -4.622562    2.752477    1.410665
C     -3.299675    3.389167   -0.480097
C      3.078438    0.443516    1.126022
C     -7.029500    0.543373   -1.469022
C      0.206339   -4.061544   -1.757039
C      0.224037    0.806236   -0.810037
C     -1.130130   -1.176472    0.000450
C      1.079783   -1.391841   -1.162691
C      1.492064   -1.179952    1.632209
C     -5.566200    2.725489   -1.870747
C      0.812579   -2.340472    1.037656
C      5.851384    1.256828    0.345610
C     -0.398466   -3.360240   -0.750601
C     -5.246243    1.894225   -0.820252
C     -0.900798    0.279796    0.106416
C      1.423243   -0.062644   -0.531803
C     -0.238540   -5.295018   -2.180528
C     -3.219162    1.079233    0.394069
C     -4.085787    2.250346    0.071944
C      0.077721   -2.030059   -0.255735
N     -2.037852    1.097104    0.035271
N      1.721419   -0.053816    0.836392
O      0.366633   -6.014437   -3.198780
O     -3.734200    0.000971    1.080043
S     -6.980194    1.921321   -2.617945
H      2.292055   -3.673916    1.788019
H      1.265411   -4.447188    0.572424
H      2.585105   -3.269766    0.097551
H      6.777001    4.766034   -1.052284
H      7.020988    2.729464   -2.434151
H      5.940578    4.547664    1.217014
H     -5.866853    4.400744    0.884258
H     -4.620698    4.715932    2.203919
H     -2.973982    5.162013    0.746284
H     -4.296379    5.337863   -0.536030
H     -2.858208   -5.621535   -0.059491
H      3.992457   -1.542271    0.958125
H      3.966945   -0.526915   -0.514362
H      6.448966    0.535407   -1.581446
H      5.342384    2.267758    2.111328
H      6.244898   -0.839117    0.587349
H      5.657462   -0.004313    2.028270
H     -2.043879   -3.455294    0.654757
H     -1.745394   -6.828170   -1.852558
H     -5.822139    0.057152    0.203191
H     -3.842535    2.581231    2.178348
H     -5.548251    2.221467    1.675233
H     -2.218324    3.299766   -0.203264
H     -3.295842    3.491650   -1.577657
H      3.200179    0.521637    2.225735
H      3.224858    1.465824    0.734026
H     -7.747977   -0.262751   -1.505277
H      1.070332   -3.652625   -2.254776
H     -0.052568    0.638334   -1.873979
H      0.378409    1.863922   -0.566607
H     -1.483132   -1.513775    1.029331
H     -1.878131   -1.425498   -0.772651
H      1.924687   -2.051076   -1.331008
H      0.522886   -1.172720   -2.122503
H      0.855953   -0.861464    2.523307
H      2.438328   -1.495270    2.140344
H     -5.135338    3.644194   -2.216257
H      0.020799   -2.778431    1.716177
H     -0.455617    0.453458    1.143049
H      2.266252    0.371654   -1.134236
H      1.116250   -6.652568   -2.896442
H     -3.710433   -0.955447    0.687590
