78

C      2.408449    3.335008   -0.988393
C     -4.519011    0.232887    1.099359
C     -5.178479   -0.041719   -1.224053
C     -6.618707   -4.284004    1.096627
C      8.094898   -3.700591    0.519729
C     -7.240546   -3.305462    0.348905
C     -5.306228   -4.086766    1.467522
C      7.539676   -3.261495   -0.658094
C      7.378817   -3.606197    1.724213
C     -0.909174    4.948848   -1.949895
C     -6.549596   -2.164424   -0.009244
C     -4.621483   -2.928366    1.096905
C     -0.418397    3.688828   -1.713774
C     -1.027289    5.852498   -0.918266
C      6.264350   -2.726028   -0.628604
C      6.110079   -3.068565    1.718470
C      2.317336   -1.122726   -0.450669
C      3.715458   -1.650188   -0.667010
C     -0.153696    4.206460    0.575407
C     -0.024987   -0.681707    1.005396
C     -0.361830    0.908582   -0.958549
C      0.695319    1.611279    1.210119
C      2.896305    1.147059   -0.044593
C      1.887506    1.920761   -0.866659
C     -5.234988   -1.951673    0.353034
C     -0.026651    3.290924   -0.431525
C     -0.790214   -0.306857   -0.244183
C      1.182313    0.156336    1.268069
C     -0.645592    5.473460    0.349027
C      5.549033   -2.625101    0.530366
C     -3.108647   -1.022708   -0.519084
C     -4.514589   -0.744469   -0.040001
C      0.494110    1.895590   -0.252668
N     -2.212407   -0.300096   -0.009502
N      2.301319   -0.055514    0.431526
O     -0.776369    6.402374    1.367201
O     -2.869916   -2.008704   -1.451427
O      4.288844   -2.098857    0.545221
H      2.047152    3.820263   -1.933657
H      3.513491    3.245960   -1.109353
H      2.232766    3.944607   -0.092278
H     -5.404940    0.885438    1.118492
H     -3.654426    0.923412    0.933926
H     -4.345401   -0.240595    2.089250
H     -6.152822    0.371237   -0.941057
H     -4.488306    0.782704   -1.519852
H     -5.187166   -0.754377   -2.053525
H     -7.127249   -5.189304    1.394973
H      9.083704   -4.110630    0.522869
H     -8.270615   -3.447474    0.049859
H     -4.842917   -4.876107    2.057606
H      8.087638   -3.337087   -1.570246
H      7.818111   -3.947087    2.633373
H     -1.210548    5.250692   -2.935145
H     -7.065556   -1.420003   -0.593534
H     -3.589764   -2.846664    1.428911
H     -0.319044    2.979491   -2.521902
H     -1.416912    6.871451   -1.095085
H      5.836524   -2.374163   -1.584112
H      5.566146   -3.004309    2.657426
H      1.962096   -0.830259   -1.482192
H      1.693009   -2.002566   -0.202243
H      4.406114   -0.900016   -1.091811
H      3.714179   -2.487129   -1.428177
H      0.142838    3.921460    1.559050
H      0.134421   -1.777648    1.101519
H     -0.737790   -0.448470    1.859426
H      0.131964    0.674613   -1.951838
H     -1.297404    1.453888   -1.301947
H     -0.270232    1.657166    1.734635
H      1.406128    2.299131    1.659443
H      3.271601    1.809145    0.770161
H      3.768497    0.973578   -0.699473
H      1.824388    1.525181   -1.902193
H     -0.621617   -1.180992   -0.944723
H      1.478596   -0.003694    2.322012
H     -0.090850    7.055780    1.647379
H     -2.040819   -2.595299   -1.266867
