90

C      3.157406   -2.528651    0.819984
C     -4.966593    1.275263   -3.431829
C     -6.155649    0.882368   -2.591851
C      8.436693    4.213961   -0.519680
C     -4.238379    2.593455    3.537780
C      8.470645    2.856155   -0.356553
C      7.304577    4.787644   -1.063697
C     -4.006649    3.292385    2.390032
C     -4.393265    1.232453    3.472963
C     -3.684288    0.856878   -2.697489
C     -5.894128   -0.336113   -1.734258
C      1.054576   -5.522316    1.985112
C      4.175622    1.583297   -0.491744
C      7.424209    2.026881   -0.710061
C      6.239028    3.988648   -1.430439
C      5.162707    1.760173   -1.649724
C     -3.931184    2.646438    1.198987
C     -4.313900    0.603162    2.264517
C      1.141216   -4.124211    1.967366
C      0.452450   -6.134291    0.919856
C     -3.672924    1.446244   -1.329760
C     -5.466067   -0.004682   -0.357199
C      3.041533    0.684676   -0.901428
C      0.050964   -4.052426   -0.116669
C     -0.179427    0.786199    0.762476
C     -0.253215   -1.392765    1.965888
C      0.633861   -1.283323   -0.384046
C      2.583097   -0.173383    1.314126
C      2.173829   -1.588606    1.473701
C      6.299211    2.621863   -1.255031
C     -4.078419    1.274355    1.058078
C      0.645621   -3.382033    0.926266
C     -1.115010   -0.273326    1.339034
C      0.779392    0.216332   -0.234428
C     -0.057079   -5.420036   -0.141965
C     -3.104528   -0.583900   -0.147053
C     -4.053348    0.548076   -0.220512
C      0.762757   -1.903660    0.974403
N     -2.064190   -0.760248    0.462560
N      2.114834    0.532286    0.179560
O     -0.668886   -6.086672   -1.211528
O     -3.496792   -1.702819   -0.970079
H      3.920312   -1.914048    0.281524
H      3.733893   -3.087954    1.598194
H      2.684176   -3.234006    0.119332
H     -4.980093    0.919258   -4.463090
H     -4.929798    2.401713   -3.453760
H     -6.998675    0.653168   -3.318633
H     -6.535425    1.678687   -1.941312
H      9.297818    4.839465   -0.220144
H     -4.288092    3.152732    4.478533
H      9.352393    2.365438    0.073931
H      7.275353    5.873709   -1.197035
H     -3.883678    4.358463    2.433766
H     -4.573780    0.691614    4.387247
H     -3.513087   -0.215781   -2.759674
H     -2.860271    1.330996   -3.304824
H     -5.314770   -1.101852   -2.270593
H     -6.914987   -0.821288   -1.618950
H      1.453275   -6.091408    2.813591
H      4.781666    1.188318    0.341059
H      3.792949    2.574204   -0.172789
H      7.449486    0.950251   -0.582468
H      5.368357    4.482788   -1.860265
H      5.463835    0.799122   -2.094193
H      4.590772    2.323395   -2.446684
H     -3.749255    3.231910    0.324619
H     -4.434872   -0.481558    2.173911
H      1.636717   -3.695106    2.850891
H      0.355141   -7.223694    0.875374
H     -2.663826    1.854084   -1.129380
H     -4.374991    2.329954   -1.361056
H     -5.503952   -0.918828    0.267108
H     -6.209462    0.698793    0.064128
H      2.493601    1.226853   -1.717737
H      3.393742   -0.247583   -1.353822
H     -0.355651   -3.512256   -0.948926
H     -0.765480    1.569519    0.298278
H      0.344286    1.234432    1.647861
H     -0.963768   -2.173856    2.307244
H      0.261236   -0.998329    2.855446
H     -0.290175   -1.504323   -0.921689
H      1.512385   -1.613749   -0.978070
H      2.211450    0.405017    2.219070
H      3.682133   -0.127495    1.391880
H      2.198691   -1.798975    2.588957
H     -1.573276    0.211919    2.222403
H      0.644578    0.644495   -1.258302
H     -1.664796   -6.242841   -1.124811
H     -2.866392   -2.441095   -1.181805
