86

C     -4.746902   -0.345175    2.063924
C     -3.786093    3.233012   -1.330738
C      2.527368   -2.804941    1.214354
C     -4.229065    1.026054    1.692061
C     -3.775355    2.760850    0.079269
C      8.774032    2.794067    1.415389
C     -8.358828    1.333055   -1.162358
C      7.633336    3.504443    1.687600
C      8.768511    2.000103    0.293718
C     -7.745466    2.498196   -0.774687
C     -7.628838    0.142523   -1.089775
C      1.372431   -5.532225   -0.934576
C      4.425187    1.540670   -0.489043
C      6.504780    3.436045    0.868836
C      7.670296    1.916050   -0.526605
C      5.385829    2.533031   -1.140056
C     -6.446639    2.485750   -0.328544
C     -6.329140    0.107514   -0.646992
C      1.436403   -4.160870   -0.912660
C      0.378322   -6.207734   -0.247355
C      3.229749    1.234876   -1.359776
C     -0.446994   -4.104376    0.461239
C      0.001208    0.890050   -0.567789
C     -0.625146   -1.380558    0.407165
C      0.802013   -1.272152   -1.529920
C      2.907051   -0.902387   -0.255741
C      1.868128   -1.590952    0.625302
C      6.541969    2.636731   -0.232174
C     -5.724739    1.284837   -0.261404
C      0.528550   -3.389226   -0.212679
C     -1.011423    0.055372    0.144681
C      1.067283    0.196563   -1.317002
C     -0.530197   -5.469136    0.451581
C     -3.401917    0.476204   -0.598529
C     -4.330324    1.324721    0.227164
C      0.623495   -1.898072   -0.182897
N     -2.266881    0.190611   -0.384027
N      2.339905    0.377498   -0.606150
O     -1.538007   -6.108766    1.149148
O     -4.000378   -0.031590   -1.791578
H     -4.053770   -1.117298    1.686821
H     -5.782185   -0.523548    1.747565
H     -4.756102   -0.474909    3.182807
H     -4.240810    2.539445   -2.039405
H     -2.740516    3.441175   -1.715038
H     -4.282451    4.241190   -1.414019
H      2.996843   -2.495188    2.200169
H      1.828460   -3.610508    1.484623
H      3.375356   -3.146287    0.600657
H     -4.790113    1.761077    2.312216
H     -3.170889    1.136251    2.015115
H     -4.259050    3.443465    0.807584
H     -2.697979    2.736823    0.411087
H      9.670435    2.825443    2.032859
H     -9.369831    1.363017   -1.505686
H      7.621657    4.131757    2.573116
H      9.658150    1.409651    0.020403
H     -8.292337    3.453663   -0.819205
H     -8.162616   -0.748264   -1.407365
H      2.087915   -6.114508   -1.484794
H      4.999761    0.580176   -0.302195
H      4.075801    1.868195    0.497166
H      5.637793    4.030435    1.162182
H      7.725581    1.265187   -1.412820
H      5.653385    2.123748   -2.113377
H      4.893872    3.501619   -1.251878
H     -6.036754    3.441264   -0.038350
H     -5.809551   -0.825253   -0.607025
H      2.228177   -3.674928   -1.461916
H      0.332031   -7.312815   -0.274881
H      2.724704    2.182394   -1.631477
H      3.582909    0.671353   -2.235368
H     -1.190128   -3.565804    1.039738
H      0.399063    1.691237    0.085241
H     -0.564615    1.491729   -1.358093
H     -1.465495   -1.978680   -0.081196
H     -0.653196   -1.656339    1.477577
H      1.575536   -1.687805   -2.168514
H     -0.217703   -1.332290   -2.032159
H      3.750809   -0.692133    0.462613
H      3.211060   -1.522929   -1.085429
H      1.584819   -0.921689    1.446383
H     -1.045889    0.498421    1.205613
H      1.254115    0.601981   -2.344942
H     -1.681124   -7.101429    1.199224
H     -3.468643   -0.708755   -2.314213
