88

C      2.064074   -3.779335    1.720912
C     -8.604363    3.850002    2.087084
C      5.039772    4.893584   -0.034249
C      3.920357    4.130793    0.303482
C      6.263438    4.357462    0.286122
C     -2.975494    0.360309   -2.910613
C     -3.673626   -0.816293   -2.314439
C      2.248822   -5.200413   -2.187975
C      5.569773   -0.039979    0.814703
C      4.051405    2.907938    0.923170
C      6.408486    3.132959    0.908136
C      5.440823    1.044223    1.899001
C      2.203738   -4.060264   -1.407971
C      1.070445   -5.836012   -2.421267
C     -5.706194    1.322162    0.541963
C     -4.335917    3.131498   -0.004992
C     -6.643372    2.208264    1.060320
C     -5.266209    4.006072    0.510641
C     -3.312739    1.531937   -2.032051
C     -3.831730   -0.500514   -0.864497
C      4.358236   -0.071418   -0.047386
C     -0.134854   -4.241996   -1.141880
C      0.839579    0.374430    0.760704
C     -0.301420   -1.831257    0.201077
C      1.681460   -1.238088   -0.989443
C      3.250472   -1.750562    1.150651
C      1.887793   -2.369599    1.169156
C      5.273268    2.381436    1.236607
C     -4.531754    1.747820   -0.005791
C      1.050620   -3.556127   -0.874054
C     -0.387886   -0.487310    0.860667
C      1.965255   -0.092604   -0.059723
C     -0.135232   -5.370539   -1.905136
C     -6.451293    3.573152    1.058255
C     -2.204481    1.081976    0.123995
C     -3.509885    0.899914   -0.658355
C      1.094141   -2.320203   -0.061230
N     -1.478742    0.215790    0.371914
N      3.167975   -0.381716    0.726456
O     -1.313232   -6.095821   -2.199262
O     -1.926809    2.410629    0.538150
O     -7.412156    4.424419    1.575853
H      1.096059   -4.176759    2.096606
H      2.571126   -4.440367    1.011630
H      2.716539   -3.676782    2.609547
H     -8.348249    3.187161    2.930484
H     -9.038371    3.194163    1.264393
H     -9.387111    4.600619    2.300339
H      4.954638    5.845842   -0.523098
H      2.973973    4.551484    0.055474
H      7.156120    4.947666    0.026782
H     -1.890197    0.143531   -2.987285
H     -3.375659    0.488737   -3.948178
H     -3.102236   -1.761137   -2.487135
H     -4.676920   -1.006623   -2.803782
H      3.209364   -5.564577   -2.594770
H      5.813975   -1.009886    1.282011
H      6.441259    0.287338    0.182123
H      3.140829    2.339395    1.177913
H      7.360763    2.718774    1.158233
H      6.359713    1.029068    2.516109
H      4.527917    0.796270    2.464263
H      3.186824   -3.582235   -1.256665
H      1.033964   -6.744169   -3.032857
H     -5.902016    0.250973    0.574145
H     -3.428827    3.570179   -0.454068
H     -7.557537    1.807988    1.483951
H     -5.097395    5.084073    0.505018
H     -2.436250    2.219496   -2.024378
H     -4.237141    2.000260   -2.420179
H     -4.806178   -0.880786   -0.463242
H     -3.050739   -1.127590   -0.335587
H      4.509220   -0.869668   -0.807751
H      4.233577    0.914746   -0.518124
H     -1.074571   -3.886925   -0.747383
H      1.219846    0.530054    1.800692
H      0.542835    1.425841    0.453420
H     -0.833350   -1.855957   -0.795640
H     -0.805935   -2.602488    0.811947
H      0.895823   -0.955749   -1.685816
H      2.623479   -1.594615   -1.447607
H      3.577524   -1.755378    2.247944
H      3.998968   -2.335794    0.571965
H      1.314448   -1.838991    1.991191
H     -0.588564   -0.710744    1.960657
H      2.297572    0.746156   -0.742257
H     -1.489456   -6.828746   -1.486593
H     -1.342197    2.579436    1.376853
