80

C      1.670574    3.480911    1.157565
C     -5.008489    0.392531    0.295788
C     -4.825997   -0.725791   -1.915951
C      9.110324   -2.826594    0.648133
C     -7.656162   -3.808236    0.644321
C      8.543726   -2.073733    1.655529
C      8.258686   -3.407692   -0.257696
C     -6.585343   -3.621279    1.467929
C     -7.748912   -3.058798   -0.516350
C     -0.623897    4.766873   -2.640330
C      4.294012   -1.131214    0.236450
C      7.186478   -1.913634    1.747143
C      6.880166   -3.246573   -0.166581
C      4.848846   -2.322927    0.975581
C     -5.593720   -2.693860    1.156955
C     -6.762051   -2.148660   -0.806572
C     -0.173781    3.564338   -2.097515
C     -1.186592    5.679536   -1.779863
C      2.805794   -1.100592    0.560240
C     -0.842997    4.208734    0.068067
C     -0.130935   -0.947007   -0.191903
C     -0.988107    1.346567    0.488582
C      0.549927    1.091701   -1.394333
C      2.505728    1.289886    0.297219
C      1.307015    2.065079    0.780680
C      6.311107   -2.509356    0.821340
C     -5.649584   -1.930960    0.015651
C     -0.272250    3.263939   -0.756849
C     -1.149997   -0.124052    0.529114
C      0.998433   -0.248556   -0.821436
C     -1.296841    5.404786   -0.431196
C     -3.243035   -1.285339   -0.208346
C     -4.686011   -0.918417   -0.389305
C      0.189002    1.941985   -0.199228
N     -2.478705   -0.435177    0.180064
N      2.177266   -0.023762   -0.088226
O     -1.883266    6.371773    0.418032
O     -2.864351   -2.589255   -0.501243
H      1.592842    4.196542    0.340233
H      1.191267    3.765332    2.100816
H      2.775898    3.442338    1.409860
H     -5.524912    1.054471   -0.419931
H     -4.138674    0.848340    0.794262
H     -5.737799    0.185055    1.121225
H     -4.965356   -1.695685   -2.429951
H     -5.616506    0.016137   -2.091716
H     -3.863230   -0.305712   -2.325942
H     10.204564   -2.937399    0.603067
H     -8.445095   -4.527440    0.865325
H      9.190568   -1.593731    2.404457
H      8.679992   -4.004040   -1.059998
H     -6.543429   -4.225518    2.371306
H     -8.608658   -3.231988   -1.146113
H     -0.539107    4.987776   -3.692856
H      4.804050   -0.226706    0.664460
H      4.487520   -1.232168   -0.837628
H      6.701228   -1.330238    2.522903
H      6.241194   -3.728932   -0.916886
H      4.650147   -2.296328    2.052910
H      4.387561   -3.282068    0.611585
H     -4.764554   -2.577466    1.835981
H     -6.869692   -1.584690   -1.719086
H      0.255794    2.881406   -2.818151
H     -1.558929    6.646900   -2.156092
H      2.390160   -2.051799    0.121903
H      2.723956   -1.152417    1.648509
H     -0.961030    4.042096    1.132592
H     -0.695476   -1.481972   -1.018317
H      0.266078   -1.765043    0.445895
H     -1.115890    1.757375    1.533621
H     -1.901335    1.773647   -0.037542
H      1.399637    1.517173   -1.968998
H     -0.303985    0.910040   -2.044953
H      3.230839    1.278647    1.139256
H      3.053275    1.859897   -0.506217
H      1.034711    1.568904    1.768511
H     -1.056726   -0.422855    1.636624
H      1.303177   -0.829072   -1.750172
H     -1.213207    7.033999    0.805681
H     -2.126933   -3.059989    0.028109
