87

C     -3.407821    2.482830    0.187197
C     -7.425345   -3.776170    0.807014
C      7.727954    1.100489   -0.307683
C      4.950799   -3.710663   -0.343669
C     -6.992516   -2.586220    1.361851
C     -7.155235   -4.157881   -0.493168
C      7.782625   -0.127255    0.336949
C      6.525564    1.607227   -0.715207
C      4.747689   -2.627404   -1.384010
C      4.140912   -3.497729    0.889879
C      0.297666    4.977181   -1.832169
C     -3.721891   -1.912351   -1.509437
C     -6.239864   -1.722080    0.557613
C     -6.410800   -3.276455   -1.247928
C     -5.122084   -1.260954   -1.633153
C      6.596525   -0.777425    0.531538
C      5.360480    0.914818   -0.494020
C      0.092654    3.677564   -1.365947
C     -0.368188    6.048815   -1.271607
C      3.648285   -1.700328   -0.911612
C      4.183926   -2.108467    1.424097
C     -3.135923   -1.611825   -0.142275
C     -1.428778    4.521546    0.203039
C     -0.432375   -0.763506    0.192213
C      0.243459    1.581476    0.880335
C     -1.070857    1.201497   -1.162236
C     -2.605343    0.411897    1.142437
C     -2.214329    1.857790    0.909859
C     -5.955062   -2.058569   -0.714220
C      5.357873   -0.316156    0.142627
C     -0.785728    3.452102   -0.333898
C      0.549272    0.141236    0.907886
C     -1.373570   -0.182291   -0.756146
C     -1.240831    5.815056   -0.243998
C      3.045778   -0.034516    0.822805
C      4.110681   -1.030780    0.359735
C     -0.968012    2.024511    0.116294
N      1.862244   -0.293617    0.700953
N     -2.781146   -0.201861   -0.170577
O     -1.925627    6.887338    0.327675
O      3.556179    1.150487    1.373693
H     -4.143114    1.698660   -0.150050
H     -3.129909    3.044782   -0.704625
H     -3.995020    3.133538    0.853742
H     -8.017213   -4.471720    1.424991
H      8.669495    1.612644   -0.451514
H      6.039271   -3.860561   -0.078281
H      4.622488   -4.681844   -0.804060
H     -7.194192   -2.266020    2.358863
H     -7.516485   -5.090773   -0.852143
H      8.741052   -0.554237    0.685414
H      6.513024    2.553644   -1.205755
H      4.592910   -3.042858   -2.393713
H      5.712560   -2.046833   -1.429024
H      3.100933   -3.875525    0.719674
H      4.577793   -4.170052    1.684445
H      0.974840    5.192336   -2.631934
H     -3.133922   -1.438248   -2.318060
H     -3.780698   -3.007508   -1.663422
H     -5.908726   -0.766860    1.002352
H     -6.176021   -3.546495   -2.268828
H     -5.482865   -1.252088   -2.660006
H     -5.016274   -0.205322   -1.260889
H      6.615226   -1.740521    1.032218
H      4.419758    1.354367   -0.839759
H      0.672396    2.935246   -1.887074
H     -0.245032    7.079437   -1.593538
H      3.542238   -0.930565   -1.733393
H      2.745317   -2.300869   -0.787664
H      4.987789   -1.959331    2.164745
H      3.230784   -1.999912    2.034925
H     -2.280432   -2.277376    0.025492
H     -3.862798   -1.839912    0.648716
H     -2.103517    4.395466    1.016822
H      0.225476   -1.507589   -0.378251
H     -0.937217   -1.451963    0.928828
H      1.118550    2.092083    0.355747
H      0.260744    2.065779    1.901674
H     -1.810283    1.682228   -1.820079
H     -0.072733    1.191339   -1.650493
H     -3.658142    0.452588    1.556558
H     -2.024820   -0.122473    1.853083
H     -2.126534    2.294806    1.934111
H      0.350417   -0.147398    2.023383
H     -1.473056   -0.796276   -1.661025
H     -2.574471    6.771977    1.087225
H      2.931169    1.680856    1.950470
