68

C     -5.007745   -0.272991    0.105134
C     -3.498929   -3.537103    1.550626
C      5.218404    2.446092   -2.289859
C      4.933535    2.619542   -0.937124
C      4.809778    1.290232   -2.888976
C      4.448033   -0.612826    1.990631
C      5.096561   -1.569369    1.020319
C     -1.352213    3.712816   -0.827906
C      4.257044    1.642686   -0.229429
C      4.134218    0.331645   -2.155543
C     -1.320205    2.324331   -0.681928
C     -2.482504    4.473193   -0.546723
C      3.086320   -0.320237    1.436697
C      4.060211   -1.871507   -0.024743
C     -3.576997    2.435008    0.037526
C     -1.103037   -2.113398    1.006496
C     -1.349044   -0.435741   -0.879447
C     -2.292419   -0.030498    1.413990
C     -3.449608   -2.014637   -0.294389
C     -3.702864   -0.507943   -0.538534
C      3.833716    0.456075   -0.820479
C     -2.437784    1.660281   -0.245806
C     -0.511276   -1.420094   -0.186310
C     -2.280191   -1.493777    1.632136
C     -3.600424    3.801087   -0.108707
C      1.869446   -0.957932   -0.617657
C      3.202881   -0.587395   -0.024920
C     -2.476416    0.212329   -0.085992
N      0.841525   -1.077275    0.113716
N     -3.470851   -2.158845    1.141560
O     -4.730156    4.563163    0.173590
O      1.798515   -1.164271   -1.965461
H     -5.731539    0.353376   -0.497340
H     -5.589268   -1.276053    0.056874
H     -5.023560   -0.081221    1.179907
H     -3.248885   -4.263669    0.752641
H     -2.869209   -3.676016    2.465014
H     -4.543021   -3.765712    1.845207
H      5.747857    3.189143   -2.857269
H      5.267222    3.537270   -0.476732
H      5.033566    1.162247   -3.942158
H      5.075957    0.297684    2.093242
H      4.371792   -1.073767    3.022207
H      5.374587   -2.494362    1.593341
H      6.058049   -1.187859    0.607377
H     -0.450216    4.195424   -1.175643
H      4.077361    1.897208    0.805370
H      3.843377   -0.552163   -2.672755
H     -0.359331    1.887621   -0.919032
H     -2.474773    5.559314   -0.666303
H      2.403721   -1.095796    1.864450
H      2.710251    0.705874    1.677775
H      3.412878   -2.670459    0.320390
H      4.487480   -2.043581   -1.037384
H     -4.495920    2.017034    0.405921
H     -0.300273   -2.153848    1.810591
H     -1.336212   -3.176238    0.815880
H     -0.679754    0.265933   -1.399135
H     -1.817682   -0.935787   -1.821030
H     -3.125753    0.510744    1.911268
H     -1.343691    0.426096    1.731987
H     -4.402844   -2.519502   -0.681611
H     -2.655863   -2.451761   -0.833405
H     -3.816262   -0.350628   -1.634080
H     -0.369895   -2.290599   -0.947292
H     -2.282879   -1.673491    2.750499
H     -4.872733    4.928852    1.111192
H      0.977937   -1.023948   -2.532449
