90

C      3.136701   -3.329738   -0.603868
C     -5.692029    1.268585    2.431892
C     -4.675445    2.380263    2.531696
C      7.842130    2.875442   -0.807874
C     -5.855969    1.960247   -3.896604
C      7.422429    3.782853    0.170962
C      6.919074    2.072075   -1.423084
C     -6.484633    2.098845   -2.656026
C     -4.571873    1.397973   -3.897128
C     -4.940282    0.036614    2.016605
C     -4.061261    2.752383    1.204349
C      1.229205   -5.087654    2.347264
C      3.562991    2.213799    1.471694
C      6.088063    3.847838    0.494324
C      5.576662    2.152537   -1.082609
C      3.770268    3.155423    0.272328
C     -5.884786    1.707134   -1.471188
C     -3.989997    1.012886   -2.719421
C      1.394752   -3.768926    1.938066
C      0.717441   -6.046999    1.502500
C     -4.969086   -0.147118    0.542979
C     -3.257101    1.684521    0.553478
C      3.833393    0.801256    1.101546
C      0.528571   -4.397638   -0.168824
C      0.473281    0.693646   -0.332113
C     -0.100413   -1.762980   -0.644427
C      1.279825   -1.076381    1.241430
C      3.344589   -0.881425   -0.510520
C      2.407437   -1.980490   -0.727807
C      5.173240    3.039434   -0.125064
C     -4.614527    1.150417   -1.482463
C      1.038411   -3.418818    0.658609
C     -0.441717   -0.350849   -0.888477
C      1.546662    0.288807    0.580808
C      0.360985   -5.713924    0.234603
C     -2.925049   -0.332667   -0.689211
C     -3.974531    0.680622   -0.237722
C      1.173084   -2.036101    0.099811
N     -1.764912    0.037515   -0.642117
N      2.897483    0.350187    0.074987
O     -0.155093   -6.674857   -0.619179
O     -3.329438   -1.590386   -1.124366
H      4.174823   -3.129932   -1.021670
H      2.718216   -4.103793   -1.245951
H      3.322304   -3.613803    0.437721
H     -6.058576    1.093754    3.478913
H     -6.501895    1.562315    1.765419
H     -3.845754    2.109847    3.224886
H     -5.168359    3.282685    2.948241
H      8.885375    2.788924   -1.095892
H     -6.323727    2.265932   -4.815397
H      8.173543    4.417071    0.648087
H      7.170662    1.331251   -2.206270
H     -7.486787    2.540706   -2.637906
H     -4.108512    1.294042   -4.866892
H     -3.941378   -0.035533    2.464144
H     -5.521883   -0.831602    2.458149
H     -4.774527    3.283509    0.530224
H     -3.313817    3.566528    1.487872
H      1.509766   -5.371419    3.355243
H      4.297367    2.539887    2.289471
H      2.576036    2.454296    1.865603
H      5.808378    4.582672    1.270371
H      4.858578    1.516160   -1.580097
H      3.071334    2.769425   -0.507212
H      3.503529    4.191713    0.543053
H     -6.465132    1.875132   -0.568794
H     -2.979627    0.573045   -2.797019
H      1.795173   -3.045751    2.611421
H      0.583037   -7.093915    1.816095
H     -4.872452   -1.233502    0.342165
H     -6.026256    0.086200    0.213935
H     -2.544131    2.204637   -0.146489
H     -2.629562    1.209883    1.300615
H      4.860387    0.629734    0.719573
H      3.634065    0.149417    1.997228
H      0.242928   -4.169923   -1.165487
H     -0.129809    1.524372    0.166173
H      0.938822    1.248973   -1.206349
H     -0.929140   -2.270832   -0.093259
H      0.051177   -2.279004   -1.646445
H      0.317290   -1.033106    1.765719
H      2.153529   -1.254507    1.909062
H      4.190690   -1.253718    0.141408
H      3.889124   -0.592851   -1.464868
H      2.073886   -1.954253   -1.811655
H     -0.340656   -0.219673   -2.040481
H      1.520446    0.978620    1.481098
H      0.357171   -7.259323   -1.240046
H     -2.744189   -2.168635   -1.715855
