77

C      3.818656   -1.575354    2.068417
C     10.555616    1.398687   -1.468867
C     -4.277346    2.750706    2.369941
C     13.653298   -0.956464   -0.055513
C    -11.496146   -0.194477   -1.268616
C     -0.733863   -1.349549   -0.731954
C    -10.885264   -1.520768   -0.961529
C     -0.061400   -0.092879   -1.177095
C    -10.714930    0.777565   -0.434242
C     -2.213078   -1.269751   -0.863459
C      2.878810    1.331291    0.138402
C      8.744292   -0.864474    0.745404
C     -6.018252    1.237422    0.817292
C     -5.064950   -0.798351   -0.833965
C     -8.487724   -1.622315   -1.467578
C      1.897540   -0.152824    1.404489
C      8.278639    0.812973   -0.565567
C      1.655425    0.963087    0.640473
C      7.693819   -0.085032    0.287543
C     -9.481964   -1.251515   -0.451804
C     -6.903912    0.514899    0.069587
C     -6.404951   -0.501022   -0.751820
C      3.857444    0.430061    0.605729
C      9.899620   -0.406608    0.155565
C     -4.662197    0.950529    0.746309
C     -4.176896   -0.052205   -0.064709
C     -0.421885    1.126653   -0.469103
C      5.264679    0.550501    0.249209
C     -8.314087    0.923005    0.243527
C     11.240386   -0.948005    0.367224
N     -7.248959   -1.313610   -1.578115
N      0.414581    1.624374    0.403801
N      6.322378   -0.257671    0.677592
N      3.235714   -0.458213    1.370035
N      9.617196    0.624361   -0.651106
N     -9.424183    0.158356   -0.193487
O     -1.602369    1.849000   -0.621923
O      5.597401    1.499743   -0.547788
O     -8.486852    2.023147    0.819754
O     11.417502   -1.926082    1.152180
O     -3.804330    1.720522    1.532823
O     12.345937   -0.432858   -0.260603
O     -2.830982   -0.293510   -0.096148
H      4.466615   -1.289706    2.921438
H      2.955119   -2.114011    2.591876
H      4.226591   -2.361901    1.411640
H     10.058787    2.350236   -1.738356
H     10.807309    0.853439   -2.398170
H     11.438361    1.655340   -0.854329
H     -3.467763    3.113777    3.030651
H     -5.036979    2.268069    3.046345
H     -4.741571    3.527264    1.744388
H     14.368527   -0.440976   -0.710009
H     13.574633   -2.047853   -0.234706
H     13.950385   -0.864058    1.026977
H    -11.464426    0.062750   -2.352307
H    -12.566857   -0.123101   -0.967784
H     -0.312436   -2.219790   -1.322291
H     -0.418201   -1.566886    0.321594
H    -11.454611   -1.960875   -0.097728
H    -10.925210   -2.250829   -1.774193
H      1.047859   -0.290136   -1.089528
H     -0.185784    0.023574   -2.304691
H    -11.190500    0.899095    0.560538
H    -10.585818    1.741761   -0.934986
H     -2.616987   -2.275777   -0.560081
H     -2.439709   -1.166512   -1.958569
H      3.044088    2.173300   -0.504770
H      8.657399   -1.692921    1.450157
H     -6.416378    2.020317    1.448767
H     -4.730590   -1.591461   -1.482627
H     -8.847069   -2.265140   -2.262427
H      1.116213   -0.676972    1.934696
H      7.788442    1.592530   -1.124784
H     -9.278674   -1.847715    0.480035
H      6.106269   -1.033208    1.320588
H     -1.599448    2.855034   -0.502685
