77

C     -5.158416    2.887012    2.430448
C    -10.244773   -2.857903   -2.476985
C      5.730829    4.037040    0.479866
C    -13.435727    0.663340    0.053598
C     11.399949   -2.133690   -1.074673
C      1.256809   -0.264572    0.700407
C     10.864332   -2.879791    0.141496
C      0.859532    0.610671   -0.465419
C     11.276443   -0.696985   -0.598793
C      2.709623   -0.668185    0.544621
C     -3.727145    0.316221    0.374697
C     -9.078852   -0.218259   -0.361492
C      6.973426    1.520723    0.218671
C      5.442838   -0.787591    0.256043
C      8.434465   -2.686960    0.179986
C     -3.008350    1.917802    1.732765
C     -8.199838   -1.821711   -1.552374
C     -2.586135    0.899220    0.911403
C     -7.860286   -0.753808   -0.702991
C      9.691944   -2.028704    0.582359
C      7.550149    0.282561    0.093803
C      6.800489   -0.890142    0.109947
C     -4.821541    0.984344    0.873407
C    -10.123597   -0.916251   -0.966451
C      5.612113    1.586180    0.363069
C      4.860861    0.441111    0.380511
C     -0.554782    0.993431   -0.313837
C     -6.226270    0.655790    0.532219
C      9.005180    0.333945   -0.057492
C    -11.547185   -0.638843   -0.838179
N      7.256700   -2.229269   -0.013411
N     -1.219356    0.570502    0.701680
N     -6.536693   -0.399021   -0.343376
N     -4.353267    1.939655    1.685207
N     -9.531411   -1.885138   -1.682127
N      9.926869   -0.751403   -0.015438
O     -1.215046    1.810171   -1.242678
O     -7.172712    1.320222    1.023883
O      9.469337    1.464149   -0.243381
O    -12.362546   -1.367521   -1.450772
O      5.009074    2.834067    0.491297
O    -12.050262    0.396160   -0.068748
O      3.482674    0.513518    0.525672
H     -5.385378    3.739153    1.731421
H     -4.596023    3.299473    3.288041
H     -6.080506    2.412069    2.780584
H    -10.666990   -2.411969   -3.380516
H     -9.610755   -3.746828   -2.710740
H    -11.103678   -3.286469   -1.884727
H      6.450744    4.085254   -0.365784
H      6.248695    4.180786    1.455133
H      5.047902    4.896876    0.344424
H    -13.579575    1.783058    0.040388
H    -13.771912    0.333078    1.060729
H    -14.039293    0.213913   -0.754098
H     12.424110   -2.462312   -1.240992
H     10.720780   -2.264105   -1.929819
H      0.578725   -1.116027    0.782322
H      1.160939    0.335646    1.627152
H     11.636341   -2.828834    0.926143
H     10.571982   -3.886950   -0.162949
H      0.941777    0.025517   -1.407827
H      1.483939    1.530453   -0.494930
H     11.312900    0.034858   -1.411677
H     12.043899   -0.539304    0.179399
H      2.943929   -1.299445    1.441279
H      2.798174   -1.218314   -0.391986
H     -3.737315   -0.517946   -0.314267
H     -9.232916    0.628610    0.286740
H      7.580569    2.421231    0.203376
H      4.840228   -1.681533    0.271788
H      8.492438   -3.776730    0.007348
H     -2.379500    2.580735    2.311380
H     -7.481084   -2.489558   -2.027792
H      9.730927   -1.919834    1.702909
H     -5.734275   -0.935329   -0.737743
H     -2.209243    1.778687   -1.390032
