51

C      7.479881   -0.153191    0.788824
C     -4.217698   -1.851638    0.776349
C     -4.101189    0.323803    1.467419
C     -5.737175   -0.384469   -0.086474
C      6.576174   -0.088660   -0.435582
C      5.192449    0.284635    0.076948
C      4.196384    0.384021   -1.029031
C      2.838137    0.769886   -0.495327
C      2.264428   -0.191834    0.486227
C      0.907389    0.172356    1.020550
C     -2.732818    2.039489   -1.308774
C     -3.444447   -0.350010   -0.790801
C     -2.373728    0.648222   -0.903273
C     -3.655813    2.777035   -0.466122
C     -0.080381    0.211606   -0.051915
N     -4.311941   -0.447854    0.291403
O     -4.893083    2.696127   -0.682113
O     -3.263539    3.584855    0.586312
O      0.231325   -0.117559   -1.215980
O     -1.405829    0.605311    0.125904
Cl     0.685953    0.000000    0.000000
H      8.515047   -0.442210    0.509954
H      7.469481    0.828431    1.296214
H      7.040379   -0.899052    1.484998
H     -4.227097   -2.516841   -0.125233
H     -3.285110   -1.996687    1.350882
H     -5.058680   -2.069379    1.453133
H     -3.164291    0.832606    1.603896
H     -4.919142    1.102286    1.531499
H     -4.261793   -0.251502    2.432177
H     -5.877470    0.169999   -1.027276
H     -6.315174    0.103767    0.697240
H     -6.168777   -1.387443   -0.268280
H      6.955491    0.674950   -1.139850
H      6.569360   -1.085782   -0.903226
H      5.277609    1.241097    0.598911
H      4.899449   -0.555991    0.765595
H      4.481401    1.167475   -1.762614
H      4.171709   -0.592789   -1.555685
H      2.203185    0.940428   -1.380981
H      2.984179    1.791685   -0.049854
H      3.003764   -0.311502    1.318581
H      2.252277   -1.197150   -0.012496
H      0.650486   -0.536654    1.835860
H      1.010184    1.211974    1.449598
H     -1.768028    2.632411   -1.327792
H     -3.056990    2.023834   -2.368963
H     -2.979342   -1.358057   -1.030079
H     -4.095928   -0.195956   -1.713134
H     -1.774705    0.291037   -1.817621
H     -0.685953    0.000000    0.000000
