55

C     -2.762017    1.993160   -1.063363
C      7.195849    2.366227    0.547158
C      6.138959    3.226152    0.738711
C      6.981274    1.037702    0.188905
C      4.835132    2.790393    0.579636
C      5.672688    0.638793    0.039460
C     -0.978929   -2.910268    0.643045
C     -2.742545   -3.248436   -0.881012
C      2.179079    1.516257    0.806704
C      2.949346    0.023001   -0.851798
C     -1.382103   -4.040161    1.367857
C     -3.150043   -4.364889   -0.174163
C      0.874503    1.060875    0.654969
C      1.634687   -0.446191   -1.014992
C     -2.341271   -0.745537   -2.075796
C     -3.496157   -0.272939   -1.259847
C     -4.185387    0.956453    0.580469
C      4.581854    1.477122    0.224171
C      3.212856    0.999612    0.056633
C     -1.660768   -2.517365   -0.479521
C     -2.473171   -4.756794    0.942612
C      0.606648    0.060398   -0.275492
C     -1.206889   -1.333287   -1.246371
C     -3.941764    1.820734    1.725486
F     -2.845208   -5.859972    1.670770
N     -3.094506    0.798127   -0.328558
O     -4.875078    1.969205    2.559903
O     -2.767758    2.513561    2.002998
O     -0.679969   -0.348775   -0.382206
Cl     0.686619    0.000000    0.000000
H     -3.199219    2.854261   -0.527807
H     -3.027006    1.941536   -2.133291
H     -1.662188    2.126770   -1.016264
H      8.207217    2.736034    0.679695
H      6.308060    4.269081    1.018857
H      7.812123    0.356382    0.037532
H      4.003298    3.481022    0.734503
H      5.449630   -0.392587   -0.241075
H     -0.116973   -2.388291    1.023335
H     -3.317316   -2.981404   -1.784865
H      2.338690    2.292326    1.538287
H      3.739819   -0.389485   -1.442849
H     -0.858438   -4.370106    2.258920
H     -4.010517   -4.956386   -0.481354
H      0.081969    1.476538    1.250611
H      1.483408   -1.214348   -1.741557
H     -1.896912    0.167458   -2.561307
H     -2.631476   -1.417762   -2.904924
H     -4.085238   -1.032355   -0.748684
H     -4.197564    0.239909   -1.972150
H     -4.434587   -0.064757    0.972465
H     -5.125697    1.296872    0.062006
H     -0.413181   -1.662617   -1.928318
H     -2.727211    3.228747    2.736919
H     -0.686619    0.000000    0.000000
