27

C      1.356559   -0.027916   -1.333406
C      2.747949    0.002458   -1.489335
C      1.535820   -0.018050    1.019971
C     -1.429245   -1.051588   -0.861006
C     -2.869566   -0.136533    1.013028
C     -1.337416    1.332629    0.179312
C      0.738157   -0.038744   -0.098647
C     -1.601699   -0.932798    0.652697
C      3.525086    0.023080   -0.371075
C      2.922793    0.014019    0.870304
C     -0.722581   -0.033487   -0.074180
Cl     5.283823    0.064448   -0.560445
Cl     3.959086    0.057808    2.276865
N     -2.735631    1.125368    0.311543
Cl     0.685993    0.000000    0.000000
H      0.755936   -0.046809   -2.252280
H      3.209794    0.003268   -2.488506
H      1.072628   -0.029538    1.984764
H     -2.272267   -0.744147   -1.521840
H     -0.908001   -1.968630   -1.142594
H     -3.718715   -0.662176    0.508579
H     -3.004126   -0.050196    2.100367
H     -1.038118    2.084136   -0.559438
H     -0.936817    1.681727    1.180503
H     -1.316129   -1.787512    1.272748
H     -3.217320    1.139184   -0.617928
H     -0.685993    0.000000    0.000000
