34

C     -3.455397   -1.195706    0.183149
C     -3.772808    1.168868   -0.537473
C      2.816902    1.141647    0.188589
C      4.158043    1.068955   -0.129206
C      2.640996   -1.068524   -0.754846
C      0.359827   -0.995003    1.351315
C     -1.401354    0.782664    1.152709
C     -0.417565    0.126023   -0.865698
C     -2.841675   -0.048746   -0.601969
C      2.059822    0.030811   -0.141498
C      0.057903    0.464294    1.422322
C      4.746869   -0.005403   -0.732499
C      3.970599   -1.121264   -1.063608
C      0.630016   -0.069469    0.186648
Cl     6.462385   -0.026408   -1.077028
Cl     4.753758   -2.470689   -1.857019
N     -1.603252    0.283915   -0.130467
H     -4.008185   -0.852603    1.057994
H     -4.111724   -1.799005   -0.508831
H     -2.639009   -1.868181    0.485275
H     -4.739970    0.901933   -0.948057
H     -3.881073    1.442258    0.535293
H     -3.256617    1.977733   -1.079058
H      2.377705    1.995007    0.663106
H      4.755780    1.941433    0.125663
H      2.027529   -1.946901   -1.023415
H     -0.449088   -1.743517    1.272563
H      1.247559   -1.351356    1.904886
H     -1.986470    0.223315    1.934699
H     -1.601456    1.864010    1.232704
H     -0.197361    1.075993   -1.384757
H     -0.512694   -0.681604   -1.595038
H     -2.802976   -0.328149   -1.676978
H      0.612981    1.083669    2.134858
