47

C      4.485342    1.358844   -1.325710
C     -2.083350   -2.423476   -0.432299
C     -0.756145   -2.068395    1.574016
C      3.373669   -0.724050   -0.020311
C      0.984299    2.892243   -1.885229
C      3.398310    0.842097   -1.855158
C     -4.502546    0.448898    1.332059
C     -3.652283   -0.602226    0.964905
C     -4.001348    1.734007    1.483288
C      0.701024   -1.681650   -1.088471
C      1.709354   -0.863564   -1.901329
C     -0.593547    2.710612    1.014045
C     -0.583624    1.346725    0.748881
C     -2.317934   -0.341789    0.757385
C     -0.244786   -0.717116   -0.470082
C     -2.675876    1.994912    1.277648
C     -1.870782    0.934341    0.917449
C      0.425844    0.350502    0.364659
C      1.607470    0.982624   -0.263397
C     -1.317734   -1.390034    0.358030
C      2.505863    0.007112   -0.990297
N      1.262859    2.039934   -1.147564
N     -1.852625    3.064998    1.325370
H      4.718243    1.177413   -0.287936
H      5.136222    1.956477   -1.920574
H     -2.691937   -3.026109    0.280149
H     -1.441331   -3.129878   -0.994973
H     -2.731318   -1.881351   -1.151367
H      0.114737   -2.662412    1.291521
H     -1.529444   -2.777127    1.939450
H     -0.525651   -1.344682    2.382916
H      2.949308   -1.655736    0.380554
H      3.537551   -0.027703    0.854386
H      4.373211   -0.866096   -0.476610
H      3.153243    1.022062   -2.912213
H     -5.554062    0.256920    1.498144
H     -4.017584   -1.608159    0.841373
H     -4.639023    2.566452    1.767111
H      0.148971   -2.262431   -1.859467
H      1.208507   -2.358241   -0.400438
H      2.358890   -1.517892   -2.503518
H      1.095922   -0.203988   -2.548774
H      0.298116    3.313904    0.958462
H     -0.776058   -0.182984   -1.291865
H      0.745024   -0.162637    1.312402
H      2.223531    1.454037    0.534145
H     -2.156521    4.024614    1.569233
