36

C     -4.216920    0.828067   -0.199470
C     -2.547883   -0.673115   -1.311297
C      2.120423   -0.254273   -1.499183
C     -1.132115   -1.049158   -0.924317
C      3.630999   -0.179823   -1.430459
C      1.945562    0.358296    0.890232
C     -2.956221    0.046039   -0.024817
C      1.501424    0.715535   -0.499646
C      0.754175    0.567750    1.836272
C     -0.311814   -0.403061    1.310034
C     -0.719876    0.105855   -0.055377
O      4.155804   -0.493214   -0.202713
O      1.172677    0.193284    3.106498
O     -1.362589   -0.340216    2.225123
O     -1.886358    0.876015    0.171279
O      0.174827    0.918973   -0.668295
H     -4.597232    1.093093    0.802891
H     -4.970895    0.165635   -0.671687
H     -4.102063    1.707500   -0.862172
H     -2.514695    0.091592   -2.122096
H     -3.183158   -1.527787   -1.534987
H      1.837156    0.041348   -2.530566
H      1.845552   -1.300688   -1.257453
H     -1.210400   -1.979002   -0.303714
H     -0.484814   -1.194665   -1.809255
H      4.022679   -0.845379   -2.234864
H      3.933689    0.858238   -1.752686
H      2.161379   -0.747185    0.978893
H      2.802058    0.923827    1.259117
H     -3.116344   -0.721358    0.728271
H      2.013015    1.701515   -0.728228
H      0.409539    1.606718    1.782673
H      0.149752   -1.406920    1.270835
H      4.785628    0.223831    0.060096
H      1.330062    1.027493    3.622056
H     -1.433025    0.582157    2.579015
