36

C     -2.365141    2.399987   -1.049046
C     -2.179753    1.273017    1.181210
C      2.817524    0.352342    0.515768
C     -1.749055   -0.153910    1.549471
C      2.628400    1.824967    0.661237
C      1.645790   -1.789741   -0.043168
C     -2.203521    1.092924   -0.342214
C      1.526133   -0.275609    0.124407
C      0.378224   -2.204623   -0.802820
C     -0.782026   -1.844266    0.092401
C     -0.724846   -0.388785    0.450634
O      3.838297    2.447206    1.032235
O      0.440568   -3.545916   -1.087279
O     -2.005236   -2.096723   -0.494950
O     -1.030203    0.439411   -0.590379
O      0.518807   -0.049212    1.030090
H     -3.445472    2.704304   -0.930682
H     -2.197392    2.245799   -2.117210
H     -1.768351    3.222593   -0.633645
H     -3.155676    1.528329    1.585162
H     -1.356322    1.942776    1.449123
H      3.543094    0.191288   -0.322249
H      3.269678   -0.092681    1.425982
H     -2.625032   -0.805630    1.375543
H     -1.321768   -0.214130    2.548996
H      1.876427    2.016633    1.453855
H      2.253778    2.226685   -0.309598
H      2.556407   -2.091015   -0.554986
H      1.529604   -2.228883    0.978334
H     -3.114706    0.475183   -0.545054
H      1.218561    0.136186   -0.854078
H      0.375506   -1.565027   -1.721133
H     -0.671159   -2.428475    1.036431
H      4.616372    1.971387    0.653679
H     -0.403945   -4.026331   -1.058805
H     -1.933568   -2.690059   -1.298893
