33

C     -2.769502    1.582125   -0.429572
C      2.715902    0.198380    0.346079
C     -1.591215    1.004484   -1.168054
C      2.848814    1.703486    0.158827
C     -2.597582    0.981634    0.951035
C      1.026422   -1.560087    0.916552
C      1.261412   -0.099066    0.710534
C      0.062798   -2.153892   -0.092854
C     -1.183947   -1.296870   -0.247714
C     -0.868347    0.176974   -0.136336
O      4.160600    2.026565   -0.175545
O     -0.348298   -3.400631    0.389305
O     -1.820008   -1.619104   -1.430421
O     -1.249776    0.702167    1.089508
O      0.496125    0.321737   -0.372224
H     -2.673467    2.680508   -0.322236
H     -3.725422    1.288450   -0.884826
H      3.367415   -0.081258    1.190939
H      2.968243   -0.325007   -0.584605
H     -1.871103    0.423113   -2.058053
H     -0.932858    1.846062   -1.487606
H      2.138125    1.998695   -0.660346
H      2.514021    2.218767    1.083923
H     -2.895654    1.700001    1.745164
H     -3.234596    0.068199    1.068374
H      0.605691   -1.763433    1.941121
H      1.992627   -2.083700    0.808088
H      0.977284    0.466204    1.612708
H      0.516592   -2.292670   -1.085872
H     -1.888246   -1.537761    0.588349
H      4.163796    2.973245   -0.479120
H      0.224213   -3.724201    1.124163
H     -2.390058   -2.423116   -1.251613
