33

C     -2.023221   -2.161156   -0.235405
C      2.472424    0.193286   -0.806620
C     -1.265065   -1.406831    0.863746
C      2.638602   -1.314087   -0.848474
C     -2.154151   -1.096624   -1.324775
C      1.031382    2.011339    0.115843
C      1.240878    0.513209    0.043049
C     -0.434740    2.248109    0.360658
C     -0.939458    1.060628    1.158954
C     -0.987504   -0.102664    0.193238
O      2.808502   -1.766321    0.466226
O     -0.689753    3.453336    0.993912
O     -2.211700    1.390699    1.630561
O     -2.109103    0.119995   -0.634056
O      0.178643   -0.153011   -0.534471
H     -1.444516   -2.988277   -0.645450
H     -3.023591   -2.423170    0.131796
H      2.336390    0.557658   -1.833173
H      3.363449    0.654083   -0.334670
H     -0.358183   -2.003490    1.092009
H     -1.887938   -1.314716    1.775050
H      3.497783   -1.591313   -1.487050
H      1.701432   -1.745237   -1.264751
H     -1.269303   -1.105590   -1.995797
H     -3.109669   -1.146097   -1.850147
H      1.395617    2.489709   -0.817019
H      1.573839    2.387830    1.023695
H      1.375912    0.098507    1.061358
H     -0.929639    2.235188   -0.653938
H     -0.250793    0.882431    2.010415
H      3.033632   -2.728652    0.494443
H     -0.748714    4.151184    0.292284
H     -2.811444    0.600045    1.558558
