39

C     -3.914029    0.150845   -0.343413
C     -1.597793   -1.853732   -0.277224
C     -2.330943   -1.315089    0.917806
C      2.009173   -1.439573    0.332150
C     -1.060650   -0.696033   -1.066324
C      3.480800   -1.538348    0.681511
C      2.093782    1.043058    0.395242
C     -2.818450    0.109041    0.688907
C      1.398802   -0.170338    0.930195
C      1.055671    2.122014    0.184045
C      0.067339    1.516614   -0.823587
C     -0.643348    0.400074   -0.086519
O      4.235307   -0.485895    0.220908
O      1.588935    3.301888   -0.287732
O     -0.799605    2.545937   -1.169981
O     -1.789474    0.985816    0.439923
O      0.048972   -0.160358    0.934954
H     -3.784481    0.970805   -1.080521
H     -4.925087    0.305383    0.103698
H     -3.990346   -0.845991   -0.869380
H     -2.287617   -2.490433   -0.867930
H     -0.767125   -2.476817    0.073222
H     -1.744972   -1.358383    1.856158
H     -3.262859   -1.920298    1.112210
H      1.517188   -2.314707    0.788708
H      1.961260   -1.431080   -0.777600
H     -0.228168   -1.047492   -1.672535
H     -1.811745   -0.262551   -1.759193
H      3.637205   -1.748324    1.758764
H      3.850547   -2.457584    0.149460
H      2.509031    0.830153   -0.631747
H      2.885419    1.445650    1.025587
H     -3.270167    0.416425    1.658183
H      1.716530   -0.227652    2.019903
H      0.518892    2.252048    1.146040
H      0.574251    1.176580   -1.730155
H      4.929012   -0.762735   -0.457487
H      1.496911    4.013593    0.382988
H     -0.548170    3.417490   -0.800401
