36

C     -4.094672    0.253496   -0.613382
C     -2.306810    1.775899    0.094369
C      2.630341    0.708078   -0.871984
C     -1.163241    1.184071    0.873528
C      3.957115    0.758443   -0.150891
C      1.853767   -1.156806    0.510734
C     -2.665000    0.725634   -0.892450
C      1.508834    0.234475    0.024488
C      0.593633   -2.002798    0.314434
C     -0.528263   -1.224138    0.969457
C     -0.787085   -0.014763    0.074006
O      3.940550    1.614521    0.937059
O      0.733664   -3.273496    0.798071
O     -1.669463   -2.000260    1.129892
O     -1.822840   -0.337371   -0.760727
O      0.335113    0.260693   -0.718310
H     -4.545922   -0.184541   -1.531281
H     -4.023505   -0.479193    0.210289
H     -4.689171    1.113082   -0.247857
H     -3.160235    2.011353    0.795013
H     -2.040073    2.727409   -0.399798
H      2.434147    1.715867   -1.289047
H      2.776411    0.015904   -1.740809
H     -0.366007    1.959901    0.917218
H     -1.497013    0.924409    1.909852
H      4.239094   -0.253692    0.150874
H      4.694196    1.169305   -0.873953
H      2.714305   -1.600305    0.001422
H      2.021157   -1.128924    1.627176
H     -2.678051    1.103627   -1.936632
H      1.442993    0.939531    0.872312
H      0.408326   -2.052389   -0.771468
H     -0.146767   -0.861934    1.950530
H      3.424018    1.279135    1.695339
H      0.352175   -3.433855    1.686963
H     -1.875720   -2.470369    0.299644
