36

C     -3.762284    0.970680   -1.451075
C     -2.826124    0.534509    0.833491
C      2.484203    0.727411   -1.322825
C     -1.400199    0.319095    1.297436
C      3.002676    1.911567   -0.579938
C      1.916464   -0.703551    0.677615
C     -2.535021    0.886586   -0.632529
C      1.478951   -0.098943   -0.603495
C      0.933214   -1.831708    0.997083
C     -0.375814   -1.652094    0.307598
C     -0.743597   -0.230129    0.025248
O      3.631986    1.636574    0.599928
O      0.768114   -1.949792    2.390607
O     -0.500348   -2.473275   -0.838978
O     -1.718395   -0.202074   -0.957333
O      0.285941    0.576367   -0.360939
H     -4.576286    1.446673   -0.840684
H     -4.086126   -0.013940   -1.835260
H     -3.590157    1.656920   -2.307611
H     -3.336202    1.339933    1.360178
H     -3.357509   -0.448901    0.888266
H      3.347762    0.107057   -1.640488
H      2.012930    1.091779   -2.260620
H     -1.316860   -0.373342    2.138328
H     -0.969090    1.318873    1.504542
H      3.695379    2.507026   -1.209543
H      2.154120    2.616014   -0.342141
H      2.915170   -1.154313    0.666911
H      1.775886    0.020667    1.522940
H     -1.957376    1.828081   -0.609788
H      1.206066   -0.944545   -1.298176
H      1.369305   -2.796605    0.657267
H     -1.163604   -2.070736    1.004158
H      4.597174    1.407071    0.517206
H      0.381715   -2.856620    2.537805
H      0.257938   -3.102312   -0.835184
