36

C     -2.923685   -0.947759   -0.367172
C     -2.542371   -2.062736    0.576527
C      2.472237    0.254102    0.802611
C     -1.722638   -0.266596   -0.972613
C      2.667749   -1.161392    1.283377
C     -1.077202   -1.984341    0.958310
C      1.498923    1.741209   -0.918083
C      1.658896    0.321302   -0.482943
C      0.023655    2.042681   -1.068841
C     -0.608813    1.520841    0.215129
C     -0.608142   -0.005282    0.028604
O      3.349979   -1.847490    0.253596
O     -0.214171    3.404242   -1.231046
O     -1.925167    1.993150    0.278797
O     -0.837283   -0.640626    1.239976
O      0.555507   -0.466930   -0.505158
H     -3.608980   -0.236330    0.139470
H     -3.497766   -1.403409   -1.200628
H     -2.755999   -3.065153    0.160093
H     -3.122466   -1.971422    1.518112
H      2.096378    0.891975    1.599811
H      3.502920    0.634120    0.544952
H     -2.104522    0.657991   -1.452445
H     -1.346181   -0.895678   -1.828854
H      1.730613   -1.664323    1.515083
H      3.378839   -1.156858    2.136816
H     -0.500457   -2.336591    0.075069
H     -0.900713   -2.633130    1.832078
H      2.072872    2.017646   -1.824333
H      1.850440    2.414814   -0.081633
H      2.363816   -0.134464   -1.252511
H     -0.311329    1.465804   -1.956931
H     -0.041984    1.838981    1.089602
H      3.470035   -2.798826    0.460164
H     -0.107802    3.588386   -2.213671
H     -1.935189    2.892091    0.648686
