36

C     -3.271824    0.195194    0.546713
C     -2.992303    1.695683    0.506891
C      1.795638    0.982343    0.073695
C     -2.308757   -0.465265   -0.401564
C      3.301367    1.042015    0.056813
C     -1.509080    1.858133    0.326537
C      1.662451   -1.280527   -0.842796
C      1.193704    0.133296   -0.982080
C      1.104405   -1.802904    0.459563
C     -0.368738   -1.536896    0.588158
C     -0.856995   -0.262090    0.022238
O      3.643643    1.907811    1.130271
O      1.314242   -3.190454    0.465323
O     -0.763143   -1.648594    1.918655
O     -0.893881    0.780260    0.977572
O     -0.184769    0.236066   -1.071478
H     -4.279854    0.050693    0.163386
H     -3.120761   -0.130209    1.594617
H     -3.250402    2.176010    1.486221
H     -3.500419    2.178916   -0.347134
H      1.448349    2.036091    0.065097
H      1.529620    0.626903    1.114865
H     -2.572891   -1.555033   -0.413370
H     -2.500682   -0.096368   -1.417410
H      3.589386    1.590124   -0.871846
H      3.803355    0.080402    0.164332
H     -1.297469    1.848518   -0.763336
H     -1.132326    2.827501    0.706104
H      2.759818   -1.312801   -0.782632
H      1.364462   -1.919848   -1.701951
H      1.591921    0.506850   -1.967707
H      1.626268   -1.398265    1.322975
H     -0.887719   -2.380201    0.044629
H      4.362865    2.521446    0.841441
H      0.491711   -3.681934    0.278542
H     -0.891194   -2.612865    2.129679
