47

C      0.478680   -1.767334   -0.683510
C     -4.060063    2.780324    0.619151
C      2.722778    0.369088   -0.430287
C      3.640704    1.348179    0.325490
C      1.641547    1.185788   -1.040679
C      4.755530    0.632481    0.972223
C      0.641527    0.481264   -1.853837
C      6.032210    0.871039    0.699567
C     -4.562187   -0.949675    0.327169
C     -0.203665   -0.569235   -1.244514
C     -3.727052    1.323906    0.476704
C     -4.979065    0.498073    0.153383
C     -3.068133   -1.072448    0.404404
C      7.106615    0.140497    1.361906
C     -2.334727   -0.183451   -0.574570
O     -6.058714    0.853372    0.914228
O     -2.766986   -2.403077    0.032385
O      6.895037   -0.747212    2.218487
O      8.408777    0.454184    1.017286
O     -1.017459   -0.050723   -0.209162
O     -2.862257    1.114151   -0.601570
H      1.456679   -2.017082   -1.154598
H      0.496556   -1.733786    0.418176
H     -0.194348   -2.665428   -0.896006
H     -4.776689    3.140479   -0.130784
H     -4.367635    2.980885    1.657039
H     -3.095668    3.346586    0.466125
H      3.368466   -0.101047   -1.198224
H      2.398944   -0.427302    0.260276
H      3.087716    1.896011    1.104398
H      3.976526    2.085853   -0.425334
H      1.134167    1.830325   -0.268228
H      2.148776    1.964456   -1.698775
H      4.537113   -0.128105    1.707660
H      1.172674    0.052797   -2.769396
H     -0.070570    1.247886   -2.305830
H      6.229215    1.634161   -0.038243
H     -4.915853   -1.564710   -0.542544
H     -5.006041   -1.306936    1.279311
H     -0.867456   -0.950035   -2.086182
H     -3.260491    0.988927    1.427075
H     -5.168225    0.666221   -0.933179
H     -2.711167   -0.973664    1.441165
H     -2.391059   -0.658780   -1.569553
H     -5.950043    1.666738    1.455289
H     -3.097417   -2.989762    0.778189
H      9.182734   -0.173554    1.137917
