77

C     10.953988    1.085065    1.721928
C      0.764555   -3.177324   -0.512908
C     -1.092652    2.358286    0.757378
C     10.016462    1.962098    0.967035
C      3.337186   -0.473040    1.425877
C      4.582623   -1.115986    0.886373
C     -5.342797    2.775458    6.016450
C     -5.500311   -1.464598   -7.159496
C      2.110408   -1.123365    0.863294
C     -4.613447    1.657098    5.696657
C     -5.679251    3.677743    5.055308
C     -5.098483   -0.380080   -6.391279
C     -5.271011   -2.720465   -6.668723
C      5.811145   -0.469445    1.446013
C      1.996278   -1.053422   -0.630068
C     -4.221475    1.460256    4.365465
C     -5.278908    3.464573    3.730330
C     -4.488296   -0.584476   -5.172939
C     -4.661064   -2.910212   -5.451210
C      6.708502    0.110675    0.669310
C     -3.442050   -0.454053   -0.278822
C      0.683198   -1.765011   -0.991188
C     -1.495577    1.036891    0.200773
C     -4.550252    2.356184    3.385586
C     -4.250444   -1.855902   -4.664692
C     -3.011292    0.867452    0.228313
C     -2.582639   -1.031874   -1.367154
C      7.899940    0.733448    1.260337
C     -4.138548    2.139604    2.018188
C     -3.607748   -2.028880   -3.381384
C     -1.196088   -0.471784   -1.409503
O      8.054636    0.708425    2.504840
O     -4.454404    2.984798    1.115649
O     -3.403693   -3.179121   -2.946336
O      8.861579    1.347768    0.504928
O     -0.386753   -1.063043   -0.437910
O     -1.152656    0.899262   -1.165120
O     -3.403906    1.052735    1.591742
O     -3.221374   -0.952003   -2.639675
H     12.024831    1.377871    1.577652
H     10.869769    0.055595    1.315949
H     10.701554    1.007200    2.808922
H      0.329785   -3.343638    0.477561
H      0.187580   -3.830412   -1.230132
H      1.819438   -3.523337   -0.486527
H     -1.577748    3.203012    0.245411
H      0.016624    2.464018    0.579689
H     -1.221725    2.340475    1.839353
H     10.575401    2.339195    0.061188
H      9.819351    2.875343    1.571654
H      3.295330    0.618804    1.156072
H      3.271097   -0.549651    2.529033
H      4.588510   -1.135794   -0.202967
H      4.598575   -2.165276    1.255220
H     -5.642839    2.918075    7.060428
H     -5.982832   -1.277837   -8.122836
H      2.093819   -2.195568    1.186367
H      1.193038   -0.656137    1.292907
H     -4.352638    0.949499    6.465548
H     -6.253327    4.557010    5.309892
H     -5.286629    0.617777   -6.793206
H     -5.574845   -3.574298   -7.248410
H      5.991821   -0.464074    2.509885
H      1.983337   -0.016686   -0.982690
H      2.837264   -1.614898   -1.111672
H     -3.649451    0.582397    4.115829
H     -5.579724    4.218571    3.022168
H     -4.196874    0.312202   -4.618655
H     -4.474707   -3.916246   -5.051740
H      6.533233    0.108099   -0.395668
H     -3.558378   -1.144108    0.593519
H     -4.471996   -0.355039   -0.702210
H      0.602705   -1.667212   -2.093113
H     -1.079486    0.231061    0.808131
H     -3.417584    1.740711   -0.325421
H     -2.490794   -2.120455   -1.160916
H     -0.756870   -0.727727   -2.399582
