63

C     -6.404330   -3.411281    1.272036
C     -3.326344    0.822758    1.130419
C      0.938787   -2.523968   -2.403088
C      8.044945   -2.425717   -1.710002
C     -1.869749    6.044936    3.082919
C      7.448435   -3.302671   -0.842026
C      7.291515   -1.403921   -2.242397
C     -1.644370    6.453638    1.800422
C     -1.639082    4.733493    3.444219
C      6.108701   -3.184843   -0.489184
C      5.959548   -1.296793   -1.883948
C     -1.177573    5.540161    0.847238
C     -1.181614    3.861767    2.487378
C     -4.524140   -1.753951    0.798398
C     -3.859719   -1.032062   -0.357287
C      1.627832    0.531930   -0.264124
C     -5.612208   -2.608236    0.312123
C     -2.736915   -0.155928    0.183232
C      0.995550   -1.034802   -2.120159
C      5.336706   -2.168234   -1.011478
C     -0.939897    4.225085    1.184457
C      1.785343   -0.828407   -0.861449
C      0.268385    1.115109   -0.564260
C      3.927599   -2.014760   -0.662774
C     -0.452346    3.289351    0.169855
C     -0.655870   -0.054841   -0.832041
O     -5.861189   -2.655664   -0.873256
O      3.398684   -2.822688    0.129972
O     -0.244597    3.676578   -1.024749
O     -1.946560    0.366868   -0.803224
O     -0.295242   -0.567406   -2.066173
O      3.154900   -1.004185   -1.179978
O     -0.194401    1.959320    0.442631
H     -6.505523   -4.431167    0.831363
H     -7.385964   -2.935729    1.469879
H     -5.854301   -3.489823    2.231007
H     -3.356095    0.428144    2.188826
H     -4.393467    0.983184    0.864923
H     -2.859955    1.834243    1.104242
H      0.708658   -3.035917   -1.435382
H      0.054632   -2.733957   -3.062656
H      1.860512   -2.904403   -2.875930
H      9.085367   -2.516477   -1.984755
H     -2.229677    6.756992    3.810346
H      8.043498   -4.108502   -0.422417
H      7.753837   -0.699271   -2.934157
H     -1.833264    7.485203    1.545721
H     -1.830805    4.455630    4.467570
H      5.627174   -3.872731    0.196196
H      5.357101   -0.502168   -2.292647
H     -1.025104    5.939510   -0.139581
H     -1.004152    2.838372    2.779181
H     -3.736642   -2.309591    1.349211
H     -4.946775   -0.973951    1.484999
H     -3.532384   -1.700883   -1.149351
H     -4.647770   -0.368380   -0.797012
H      2.440550    1.235000   -0.556494
H      1.687548    0.430300    0.849229
H     -2.086305   -0.861415    0.780270
H      1.494751   -0.557262   -2.984838
H      1.508461   -1.647494   -0.143814
H      0.380017    1.668299   -1.542415
H     -0.494705   -0.776393   -0.006077
