67

C     -5.980890   -3.368369    2.491873
C     -4.142134   -0.516798   -0.126900
C      0.585996   -2.373349    0.778407
C     -4.126866   -3.493062    0.790115
C     -3.437177   -2.965507   -0.416601
C      6.549151   -0.448291    0.268662
C      5.757782   -1.213605   -1.817127
C     -2.540902    4.866100   -0.562324
C     -1.510681    3.697188    1.200668
C      7.847998   -0.648807   -0.144109
C      7.074474   -1.414796   -2.230442
C     -2.849939    5.892647    0.304729
C     -1.809453    4.705250    2.071872
C      1.036620    0.418062   -1.446695
C     -5.455277   -3.022389    1.126916
C     -3.074259   -1.527688   -0.312562
C      0.992791   -1.932660   -0.605472
C      5.470364   -0.726704   -0.560672
C     -1.874691    3.759383   -0.147997
C      8.143221   -1.137865   -1.406376
C     -2.482123    5.821967    1.649414
C      1.728154   -0.617067   -0.601334
C     -0.441034    0.448719   -1.339577
C      4.097050   -0.518418   -0.128686
C     -1.514382    2.645824   -0.994087
C     -0.997203   -0.842160   -0.881537
N      9.481907   -1.346771   -1.838850
N     -2.777012    6.850417    2.562930
O     -6.157540   -2.388207    0.413879
O      3.819824   -0.086125    1.000965
O     -1.827159    2.612996   -2.220512
O     10.558766   -1.083755   -1.044950
O      9.674631   -1.782872   -2.979730
O     -3.442176    7.985458    2.179034
O     -2.431721    6.739571    3.747874
O     -2.256062   -1.130540   -1.398853
O     -0.161512   -1.858559   -1.385181
O      3.062851   -0.809495   -0.998671
O     -0.808211    1.551128   -0.527822
H     -6.696148   -4.232742    2.397425
H     -6.564130   -2.535687    2.923649
H     -5.195302   -3.645921    3.194474
H     -4.515475   -0.427638    0.892679
H     -4.881158   -0.548131   -0.941044
H     -3.652834    0.522987   -0.303610
H     -0.404027   -2.872926    0.747208
H      0.578285   -1.496187    1.484369
H      1.307440   -3.152706    1.152954
H     -4.176928   -4.627049    0.768446
H     -3.489462   -3.323109    1.721657
H     -4.004485   -3.195042   -1.359723
H     -2.442296   -3.527986   -0.458737
H      6.332063   -0.059950    1.269146
H      4.906746   -1.434483   -2.472943
H     -2.830830    4.926544   -1.616120
H     -0.974081    2.829636    1.584306
H      8.684202   -0.431870    0.500764
H      7.277522   -1.800735   -3.226707
H     -3.372615    6.771422   -0.002058
H     -1.526785    4.657184    3.125719
H      1.315290    0.174879   -2.505146
H      1.433579    1.435107   -1.254899
H     -2.446992   -1.470053    0.646796
H      1.619992   -2.731794   -1.037384
H      1.736133   -0.240940    0.434205
H     -0.866954    0.677719   -2.362634
H     -0.933928   -0.981378    0.226936
