45

C     -4.625843   -1.927415    0.038976
C     -5.219661    0.401450    0.683598
C      6.398209   -0.473939   -0.153865
C      0.269537    3.785138   -0.201408
C      2.852638   -3.531193    0.216495
C      2.674492    1.400412    0.333015
C      3.917766    0.844318    0.190270
C      1.493191    0.732285    0.128545
C      3.973115   -0.497538   -0.190464
C     -0.874210    0.684235    0.085686
C      1.577959   -0.605890   -0.250777
C     -2.297292    1.085617    0.181898
C      0.297802    1.368366    0.294600
C      2.809563   -1.201331   -0.404848
C     -3.029035   -0.131920   -0.343131
C     -0.792305   -0.660744   -0.295590
C     -4.102735   -0.608832    0.608319
N      0.411221   -1.251079   -0.448545
O     -2.597821    2.158883   -0.649959
O     -3.583335   -0.894533    1.868684
O      5.175948   -1.147757   -0.360467
O      0.271478    2.694973    0.671358
O      2.848213   -2.535125   -0.783480
O     -2.075018   -1.159085   -0.453041
H     -5.149062   -1.751411   -0.914610
H     -5.218659   -2.483179    0.774340
H     -3.721199   -2.546364   -0.182119
H     -6.047564    0.030849    0.038210
H     -4.834679    1.391902    0.338140
H     -5.583588    0.509217    1.725786
H      6.510600   -0.322152    0.948622
H      7.224393   -1.105829   -0.566083
H      6.349693    0.511464   -0.654846
H      0.801232    3.600003   -1.153976
H      0.846624    4.614656    0.301178
H     -0.738493    4.172646   -0.418804
H      3.563615   -4.347805   -0.095750
H      3.237585   -3.086069    1.162466
H      1.861528   -3.993238    0.378791
H      2.634554    2.444620    0.629367
H      4.825399    1.411328    0.362630
H     -2.600418    1.300304    1.228567
H     -3.472330    0.041203   -1.325093
H     -2.901836    2.932891   -0.106907
H     -3.361271   -1.854332    1.973180
