94

C     10.610166    1.214766    0.855300
C      9.705712    2.216294    2.894142
C    -10.052656    0.481923    1.157123
C    -10.801037    1.258306   -0.997997
C      5.760355   -0.947848    0.989327
C     -6.017305   -1.745986    1.369911
C      2.822148   -1.254379   -3.088958
C     -2.745077    1.533735   -0.640315
C      0.468244   -1.053124   -1.289327
C     -0.599449   -0.223211   -0.595212
C      7.971018    1.006339   -0.177256
C     -7.587749    0.776564   -0.987437
C      4.640670   -2.712776   -1.053463
C     -4.158210    0.143177    1.885396
C      6.812987    0.395947   -0.790037
C     -7.156728   -0.465625   -0.343799
C      3.140994   -2.562507   -1.063260
C     -2.769675   -0.027533    1.343229
C      8.148891    1.241489    1.260457
C     -8.437071    1.761890   -0.341532
C      1.808692   -0.437654   -0.951525
C     -1.985577   -0.769460   -0.880269
C      5.168032   -1.365632   -1.398268
C     -4.999527    0.346531    0.643732
C      9.500151    2.045276    1.415502
C     -9.791866    1.519196    0.112804
C      6.278526   -0.934376   -0.414546
C     -6.324962   -0.343156    0.901583
C      2.954159   -1.166288   -1.576403
C     -2.975011    0.124439   -0.143907
Br     8.658284   -0.417306    2.227213
Br    -8.484731    3.331134   -1.542266
Cl     9.254839    3.571665    0.583600
Cl   -10.361332    3.082620    0.849890
O      2.008514   -0.356154    0.413666
O     -2.102145   -2.082466   -0.479919
O      7.331184   -1.880364   -0.531014
O     -6.931079    0.352157    1.922226
O      4.122118   -0.459832   -1.304567
O     -4.269724   -0.242341   -0.350394
H     10.374077    0.148526    1.028098
H     10.783662    1.364863   -0.230512
H     11.557617    1.490749    1.373362
H      8.769660    2.103575    3.476025
H     10.181531    3.200272    3.147983
H     10.412832    1.449272    3.279224
H    -11.141630    0.451060    1.443973
H     -9.570908    0.865368    2.106934
H     -9.717832   -0.523091    0.950934
H    -10.763763    0.201303   -1.335540
H    -10.650699    1.911309   -1.862285
H    -11.836875    1.430111   -0.635842
H      5.853151    0.021196    1.510042
H      4.624218   -1.040761    0.870282
H      6.119118   -1.750598    1.631754
H     -5.011953   -2.095812    1.066081
H     -6.164216   -1.885970    2.459875
H     -6.725052   -2.491896    0.900814
H      3.838541   -1.572748   -3.454097
H      2.498326   -0.316468   -3.545847
H      2.152252   -2.113156   -3.291184
H     -2.320795    1.486528   -1.687993
H     -3.664433    2.133066   -0.629061
H     -1.993882    2.088005   -0.047638
H      0.301317   -1.146302   -2.358937
H      0.454575   -2.068938   -0.842826
H     -0.555836    0.827243   -0.943165
H     -0.388922   -0.189859    0.491866
H      8.950852    0.529259   -0.545334
H      8.069239    2.058292   -0.660517
H     -6.623034    1.333926   -1.268028
H     -7.948788    0.501931   -2.042727
H      4.973844   -3.437658   -1.832165
H      5.011948   -3.106754   -0.086212
H     -4.135209    1.071724    2.524417
H     -4.491853   -0.729644    2.481115
H      5.968536    1.179381   -0.751948
H      7.012747    0.392289   -1.925334
H     -6.433931   -0.964233   -1.094562
H     -7.898661   -1.259343   -0.185654
H      2.667561   -2.747445   -0.094325
H      2.724945   -3.301143   -1.788126
H     -2.050017    0.714138    1.745359
H     -2.441072   -1.069951    1.521232
H      7.416912    1.813687    1.812652
H     -7.849259    2.172474    0.544806
H      1.799810    0.591916   -1.366795
H     -2.230880   -0.699556   -1.955897
H      5.626107   -1.290255   -2.404872
H     -5.132441    1.448275    0.542028
H      2.614882    0.429243    0.599846
H     -1.990443   -2.677594   -1.267897
H      7.823153   -1.675921   -1.366227
H     -7.463801   -0.209315    2.517178
