45

C     -4.564080    1.434743    1.583086
C     -5.051319    0.403579   -0.576172
C      6.448094   -0.626177    0.415621
C     -0.479354   -3.472007   -0.436806
C      3.506360    2.846837   -0.895622
C      2.381619   -1.868540    0.596777
C      3.699382   -1.468117    0.538186
C      1.372805   -0.909954    0.572807
C      4.032129   -0.141344    0.456714
C     -0.905206   -0.340097    0.605521
C      1.727908    0.419369    0.490571
C     -2.391120   -0.394813    0.651430
C      0.056408   -1.323697    0.632134
C      3.057853    0.826241    0.431289
C     -2.732854    0.883248   -0.038804
C     -0.580521    0.991606    0.523939
C     -4.130775    1.355612    0.165734
N      0.726718    1.316095    0.469755
O     -2.884174   -1.519770   -0.001382
O     -4.263321    2.597639   -0.450548
O      5.370670    0.283152    0.396237
O     -0.270795   -2.680719    0.715111
O      3.369775    2.176098    0.349143
O     -1.760409    1.767662    0.514577
H     -4.417593    0.532671    2.171757
H     -4.120104    2.352179    2.031234
H     -5.675147    1.631832    1.581314
H     -5.971422    0.954064   -0.874547
H     -5.237737   -0.506974   -0.004511
H     -4.553832    0.107004   -1.533803
H      7.357570   -0.039042    0.696831
H      6.268087   -1.385013    1.195878
H      6.552991   -1.049133   -0.599049
H     -0.291111   -2.940990   -1.377862
H      0.177523   -4.383517   -0.327380
H     -1.521777   -3.874303   -0.493413
H      4.568927    2.843671   -1.178710
H      2.866190    2.282375   -1.614064
H      3.121313    3.873168   -0.738003
H      2.104556   -2.915154    0.661455
H      4.505060   -2.187968    0.554848
H     -2.667780   -0.412865    1.723004
H     -2.478833    0.768431   -1.111040
H     -2.756961   -1.442683   -0.962298
H     -3.565714    3.235602   -0.215566
