37

C     -4.202026    0.295098   -0.924377
C     -3.253443   -1.353714    0.583861
C     -2.701543    1.012265    0.828616
C      2.484518    0.113523   -1.310995
C      2.208696    0.313297    1.018532
C     -0.573958   -0.457622   -0.889898
C      1.656541    0.373448   -0.237868
C      3.826246   -0.195521   -1.108891
C      3.539765    0.007911    1.244980
C      0.216337    0.719776   -0.359407
C      4.366269   -0.252036    0.158054
C     -2.899171   -0.086498   -0.179187
Cl     4.902162   -0.535199   -2.450122
Cl     4.193017   -0.049686    2.876365
N      5.716844   -0.561440    0.414019
N     -1.921057   -0.260948   -1.154758
O      0.164227    1.779934   -1.276938
Cl     0.687903    0.000000    0.000000
H     -5.016320    0.187325   -0.207409
H     -4.066003    1.388067   -1.143647
H     -4.298966   -0.312311   -1.826039
H     -2.833014   -2.258450    0.066573
H     -2.905997   -1.276575    1.629744
H     -4.343000   -1.520018    0.623211
H     -2.322679    1.955103    0.418870
H     -2.201493    0.657491    1.755479
H     -3.745385    1.284310    1.197243
H      2.112822    0.134693   -2.327796
H      1.620348    0.504181    1.927660
H     -0.060264   -0.728253   -1.859772
H     -0.327600   -1.322655   -0.225200
H     -0.165514    0.979945    0.633391
H      5.887144   -1.429503    1.000634
H      6.477488    0.036423    0.041773
H     -2.299608   -0.701261   -2.012744
H      0.764617    1.558903   -2.017104
H     -0.687903    0.000000    0.000000
