89

C      7.045494   -1.405079    0.946267
C     -3.162430    1.967699   -2.525505
C     -3.841561   -0.259913   -2.483521
C      3.835700    3.995271   -2.271765
C     -7.045081   -3.605932    2.119945
C      1.795977   -2.913871    1.093687
C      1.730223   -1.456988   -0.760670
C     -1.814987    2.437375    2.402285
C      0.475446   -2.534169    1.408411
C      0.402891   -1.103419   -0.408201
C     -0.803536    2.677959    3.298080
C      5.697689   -0.491051   -1.890673
C     -5.890551    0.446139   -0.545834
C      6.365767   -1.665906   -1.352067
C     -5.166235    1.377753   -1.445554
C      3.859004   -2.736998   -0.330689
C     -2.919916    1.968043    0.344987
C     -0.341313    2.255576    0.507481
C      4.448670    1.497643   -1.404393
C     -5.734196   -1.546922    0.822577
C      3.304253    0.381607    0.948460
C      2.430043   -2.369716   -0.001386
C     -1.621655    2.224098    1.018496
C      4.777433    0.200089   -0.958632
C     -5.019091   -0.523865    0.183632
C     -0.258615   -1.618745    0.668246
C      4.206955   -0.339278    0.206672
C      4.722287   -1.721486    0.416069
C     -3.066318    0.727070   -0.484920
C      0.460974    2.699826    2.754688
C      0.688826    2.492565    1.398138
C      3.549534    2.181340   -0.641002
C      2.973916    1.652432    0.514322
C     -4.971626   -2.443110    1.509900
C     -3.656222   -0.425882    0.240181
C     -3.572329   -2.346997    1.572036
C     -2.837962   -1.351408    0.952294
N      6.086080   -1.875601    0.002355
N     -3.810071    0.977481   -1.719268
O      1.497173    2.952568    3.687583
O     -3.027314   -3.386693    2.343014
O      3.244331    3.483637   -1.112747
O     -5.654415   -3.477505    2.159534
O     -1.541500   -1.285328    1.027629
O      2.070418    2.555702    1.106846
Cl     0.685963    0.000000    0.000000
Cl     0.684949    0.000000    0.000000
H      6.562373   -0.933515    1.844866
H      7.822806   -0.751195    0.550829
H      7.576770   -2.306295    1.371225
H     -2.063298    1.784668   -2.516466
H     -3.383780    3.003473   -2.267272
H     -3.539214    1.818402   -3.580107
H     -3.727081   -1.137338   -1.823760
H     -4.752396   -0.343437   -3.102855
H     -2.973564   -0.308759   -3.204842
H      3.632864    3.318654   -3.128398
H      4.948276    4.102334   -2.176940
H      3.387801    4.999140   -2.448728
H     -7.411014   -4.553041    2.529152
H     -7.340809   -3.574383    1.031950
H     -7.484314   -2.704541    2.584572
H      2.106628   -3.657055    1.880726
H      1.988512   -0.860879   -1.677952
H     -2.835343    2.422979    2.833761
H      0.117155   -3.072613    2.332340
H      0.018664   -0.348089   -1.154896
H     -0.983104    2.839443    4.352460
H      6.441070    0.274343   -2.288834
H      5.094471   -0.819894   -2.806272
H     -6.384396    1.068651    0.256207
H     -6.690475   -0.129098   -1.027288
H      6.100396   -2.589041   -1.925633
H      7.487341   -1.595723   -1.458792
H     -5.221001    2.439006   -1.110988
H     -5.696036    1.369098   -2.442738
H      4.237765   -3.711230   -0.026699
H      4.159271   -2.756539   -1.394433
H     -3.723428    1.814575    1.134833
H     -3.336092    2.816648   -0.237331
H     -0.108916    2.143544   -0.600971
H      4.888043    1.923497   -2.302492
H     -6.800141   -1.625732    0.778744
H      2.819439   -0.013297    1.909099
H      4.728990   -2.094881    1.459679
H     -2.038993    0.492107   -0.848176
H      2.462599    2.990002    3.385429
H     -0.685963    0.000000    0.000000
H     -0.684949    0.000000    0.000000
