97

C     -6.254810    0.381901   -1.513991
C     -2.657008   -0.998714    1.670319
C      7.280669    1.992371    1.443665
C     -5.865664    0.406261    1.928617
C      6.207739   -1.244822    0.002445
C      5.101552   -1.818734   -0.587523
C      5.038038    0.796498    0.237108
C     -3.799267    0.435999   -2.085987
C     -0.660156   -0.424586   -0.255419
C     -4.805245    0.169924   -1.179648
C     -3.081519   -0.487362    0.334486
C      6.193039    0.068775    0.422927
C      3.962061   -1.079079   -0.763811
C      3.931520    0.227373   -0.351428
C     -2.091493   -0.212236   -0.594036
C     -4.421441   -0.303468    0.058558
C      2.000856   -0.244648   -1.209414
N     -2.496238    0.247899   -1.792117
N      2.750158   -1.329118   -1.287385
N      2.715412    0.742136   -0.628600
O      0.070244   -1.120738   -2.714023
O      7.301130    0.661219    1.019600
O     -5.407359   -0.585401    1.005127
S      0.306152    0.051042   -1.732344
C     -3.458183    2.829677    0.382046
C     -3.831082   -2.033131   -0.148240
C      7.431877    1.273772   -0.540603
C     -5.952982    0.607258   -0.632437
C      4.773729    1.024621    0.549527
C      3.463970    0.850432    1.011009
C      4.590207   -1.086689   -0.574131
C     -1.482249    1.450446   -0.345940
C     -1.222762   -2.212990   -1.064180
C     -2.817198    1.538144   -0.020439
C     -3.031348   -0.800837   -0.304043
C      5.322594    0.049551   -0.242081
C      2.732892   -0.288137    0.670720
C      3.297358   -1.253115   -0.120867
C     -1.673793   -0.885315   -0.632020
C     -3.609591    0.418030    0.003746
C      1.240629   -1.855861    0.358658
N     -0.958160    0.208998   -0.645575
N      1.473594   -0.714113    0.931181
N      2.402988   -2.205972   -0.314164
O     -0.990034   -2.589744    1.533943
O      6.602152    0.155626   -0.751695
O     -4.955746    0.481504    0.329079
S     -0.149092   -2.979793    0.244187
O     -0.000220    0.393442   -0.000000
O     -0.002825    0.397096   -0.000000
O     -0.006768    0.377006   -0.000000
O     -0.000489    0.367862   -0.000000
Sr     0.000000    0.000000    0.000000
H     -6.620313    1.353604   -1.125763
H     -6.877764   -0.433576   -1.069038
H     -6.426380    0.353591   -2.596567
H     -2.095580   -1.924387    1.523887
H     -2.019959   -0.226922    2.158044
H     -3.538168   -1.170839    2.313608
H      7.093465    2.701693    0.604385
H      8.280970    2.263646    1.845224
H      6.559541    2.168887    2.289637
H     -5.031327    1.052592    2.214600
H     -6.732113    0.913697    1.495259
H     -6.221239   -0.147426    2.834708
H      7.110140   -1.830116    0.142202
H      5.158243   -2.872786   -0.908533
H      5.017327    1.831016    0.564926
H     -4.111314    0.813415   -3.072117
H     -0.432879    0.261609    0.587599
H     -0.431019   -1.440190    0.069016
H     -3.262559    2.974277    1.496202
H     -3.110439    3.690699   -0.196498
H     -4.585476    2.752931    0.308969
H     -4.723127   -1.992860   -0.784537
H     -4.241627   -2.006163    0.930611
H     -3.251746   -2.950623   -0.220063
H      6.998787    2.082269   -1.208120
H      7.325736    1.613526    0.498973
H      8.486176    1.070292   -0.734200
H     -5.752588   -0.053968   -1.525425
H     -6.193177    1.630080   -0.928217
H     -6.893053    0.224200   -0.122894
H      5.344111    1.879609    0.817894
H      3.043574    1.613280    1.632836
H      5.018747   -1.869546   -1.187111
H     -0.898902    2.343433   -0.355345
H     -1.953286   -2.897072   -1.357414
H     -0.550923   -2.086728   -1.994969
H      0.795727   -0.196647    0.000000
H     -0.795507   -0.196794   -0.000000
H     -0.794367   -0.199654   -0.000000
H      0.797192   -0.197442    0.000000
H      0.819362   -0.186180    0.000000
H     -0.812593   -0.190826   -0.000000
H     -0.814364   -0.184114   -0.000000
H      0.814854   -0.183748    0.000000
