24

C      0.212331   -1.473450   -0.397430
C      2.514473   -0.722394   -0.534154
C      1.078328   -0.490943   -0.258848
C     -1.235934   -1.380703   -0.157968
C      0.675046    0.878480    0.172502
C     -1.674487    0.044425   -0.039401
C     -0.707581    0.888727    0.749880
O      3.278726   -0.464959    0.622377
O     -1.921533   -1.961433   -1.235406
O      0.872069    1.825098   -0.817624
O     -2.905316    0.079437    0.584668
O     -1.219654    2.172577    0.808189
H      0.597229   -2.454240   -0.720653
H      2.840533   -0.045809   -1.354162
H      2.675390   -1.762224   -0.874959
H     -1.512717   -1.947722    0.756138
H      1.378231    1.150406    1.011643
H     -1.738979    0.473683   -1.057153
H     -0.676915    0.494324    1.786775
H      3.544999    0.503761    0.624743
H     -2.433634   -1.287625   -1.747280
H      0.279923    1.711613   -1.592541
H     -3.363006    0.921097    0.274057
H     -0.557521    2.847873    0.566797
