40

C      3.491802   -0.927776    1.279244
C      3.555790    1.664660   -1.476533
C     -2.823641   -1.985308    0.804921
C     -3.195336    1.243487   -1.109207
C      3.892461    1.073615   -0.166523
C     -1.345667   -2.038470    0.709107
C     -2.208804    0.085021   -1.343904
C      2.500707    1.278459   -2.220477
C     -3.352466   -0.590773    0.925350
C     -2.994488    1.631644    0.340369
C      3.189341   -0.280803   -0.032092
C     -0.621351   -1.014449    0.264352
C     -1.342597    0.186750   -0.136339
C      1.633220    0.225303   -1.728228
C      1.713932   -0.003103   -0.262195
C      0.831255   -1.066159    0.212189
N     -2.348080    0.442973    0.891679
O      0.901112   -0.413950   -2.479284
O      1.447697   -2.126098    0.607685
H      2.707601   -0.811469    2.042817
H      3.708942   -2.000371    1.102276
H      4.465494   -0.482719    1.626151
H      4.183822    2.460260   -1.883232
H     -3.343137   -2.612172    0.054994
H     -3.062777   -2.496675    1.787676
H     -4.216475    0.945869   -1.362722
H     -2.881682    2.124993   -1.738808
H      4.962735    0.986805    0.015016
H      3.476399    1.728071    0.648887
H     -0.804893   -2.926832    1.003225
H     -2.823005   -0.819301   -1.416955
H     -1.705090    0.203061   -2.313308
H      2.341829    1.773692   -3.164347
H     -4.102074   -0.439377    0.122312
H     -3.929351   -0.424105    1.882897
H     -2.273424    2.466912    0.406334
H     -3.940256    1.832586    0.862140
H      3.562866   -0.917654   -0.856588
H     -0.716008    1.079474   -0.222915
H      1.463600    0.943928    0.246383
