46

C      7.213012    0.807910   -0.575429
C     -5.826549    2.541893   -0.293780
C     -4.758194   -2.062457   -1.093899
C      0.362295   -2.716888    2.480319
C      2.433263    0.564444   -1.146039
C      3.373375    0.362281    1.002174
C      3.697586    0.712336   -1.674908
C      4.635940    0.510831    0.467027
C     -3.902888    0.510509   -0.434448
C     -2.194099    2.036058    0.132215
C     -0.632133   -1.342759   -0.341199
C      2.244726    0.385679    0.208811
C      4.834533    0.689967   -0.885499
C     -3.529470    1.795246   -0.113017
C     -1.681767   -0.298343   -0.277745
C     -3.004772   -0.533121   -0.519917
C     -1.276789    0.983134    0.047619
C      0.396004   -1.180965    0.755641
C      0.933392    0.220300    0.840366
O      6.094255    0.841897   -1.449697
O     -4.452378    2.849614   -0.028944
O     -3.390677   -1.825643   -0.844794
O     -0.222473   -1.547926    1.948027
O      0.060720    1.182849    0.284622
H      8.165103    0.902984   -1.114546
H      7.221214   -0.149590    0.022720
H      7.111894    1.622100    0.168168
H     -5.808261    2.054142   -1.312472
H     -6.220336    1.800735    0.432635
H     -6.431673    3.441293   -0.398262
H     -4.822580   -3.106729   -1.501657
H     -5.395140   -1.971900   -0.209507
H     -5.116290   -1.396895   -1.908908
H      1.453442   -2.536820    2.682246
H      0.196912   -3.589499    1.818550
H     -0.078904   -2.957384    3.464499
H      1.537714    0.582747   -1.773403
H      3.314589    0.226300    2.078012
H      3.810261    0.850564   -2.740207
H      5.534775    0.492604    1.095481
H     -4.965722    0.327163   -0.627885
H     -1.844088    3.031994    0.390234
H     -1.129233   -2.324811   -0.202634
H     -0.159927   -1.339346   -1.326013
H      1.189092   -1.930427    0.562371
H      1.030248    0.483932    1.913069
