46

C     -4.714984    0.308340    0.454726
C     -4.025530   -1.930312   -0.323166
C      3.113517    1.324038   -0.702936
C     -0.120717    1.325752    1.646598
C      5.694672   -0.614345    1.212140
C      4.988247   -1.801330    1.416739
C      5.049563    0.387226    0.543450
C      3.686505   -1.932942    0.966709
C     -1.236215    2.051952   -0.481745
C     -2.426564    1.447867   -1.182544
C     -1.462123   -0.831564   -1.004375
C      1.781722   -1.040265   -0.392135
C     -3.912323   -0.461177   -0.531749
C      3.790625    0.261259    0.080407
C      3.022446   -0.942038    0.282901
C     -0.260126   -0.201906   -0.372947
C     -0.843542    0.890671    0.424185
C     -2.546833    0.099820   -0.618448
O      0.576078   -1.064945    0.346861
O     -2.110753    0.406041    0.740872
H     -5.804050    0.274075    0.304442
H     -4.457173   -0.148221    1.480486
H     -4.312437    1.352342    0.577554
H     -3.909394   -2.221695    0.733916
H     -5.091776   -2.205315   -0.609479
H     -3.419611   -2.545036   -1.013523
H      2.805025    0.977560   -1.738526
H      3.831205    2.166903   -0.901069
H      2.254780    1.778282   -0.172811
H     -0.821880    1.998722    2.225300
H      0.757767    1.950523    1.476355
H      0.082379    0.449160    2.254363
H      6.732280   -0.537083    1.512470
H      5.569165   -2.581727    1.893716
H      5.555044    1.356004    0.394536
H      3.242894   -2.924258    1.186556
H     -0.419766    2.186655   -1.234022
H     -1.460755    2.989659    0.040157
H     -3.360293    2.039255   -1.030823
H     -2.244632    1.440505   -2.304382
H     -1.567925   -1.875800   -0.632936
H     -1.367655   -0.835746   -2.120450
H      1.735446   -2.235452   -0.746181
H      1.659911   -0.601138   -1.360999
H     -4.407917   -0.229055   -1.539617
H      0.375700    0.269776   -1.180577
