72

C     -7.928820   -0.839707    2.029096
C      8.064435    0.718336   -1.350056
C     -5.904177    0.554593    2.554579
C     -5.832893   -0.896069    0.698123
C      5.642502    0.522961   -1.921507
C      6.314176    0.071159    0.324693
C     -4.609102    0.959937    2.282686
C     -4.529975   -0.486028    0.427373
C      4.348838    0.253270   -1.543671
C      5.028315   -0.201092    0.717442
C     -6.536033   -0.380764    1.765108
C      6.657669    0.432114   -0.969625
C     -3.893934    0.450737    1.216107
C      4.041389   -0.102615   -0.249737
C     -0.569011    0.645361   -0.541474
C      0.296011   -0.585695   -0.390091
C     -0.486567    1.235117   -1.898521
C     -0.272759   -1.755272   -1.103716
C     -2.535575    0.868135    0.920402
C      2.666823   -0.388710    0.148586
O     -1.533420    1.398266   -2.579779
O      0.710047    1.627706   -2.475528
O     -1.459195   -2.066748   -0.821125
O      0.392636   -2.507740   -2.033739
O     -1.934922    1.715159    1.616894
O      2.367335   -0.713435    1.320499
O     -1.869675    0.324178   -0.159534
O      1.615187   -0.313530   -0.762870
C     -1.318549   -1.946380    0.626134
C      3.233755   -0.812492   -0.005865
C     -2.465660    1.049367   -0.171995
C      1.864960   -0.879076    0.229906
C     -1.020264    1.511454   -0.123040
C      3.774424    0.422593   -0.302359
C     -2.267564   -0.306217   -0.829926
C      1.690742    1.443660   -0.132278
C      1.075090    0.247912    0.169895
C     -0.371911    0.249584    0.407024
N      3.022666    1.523626   -0.364257
N     -1.062566   -0.822546   -0.253358
H     -7.869467   -1.812612    2.558058
H     -8.359493   -0.119832    2.777879
H     -8.547436   -0.856152    1.130397
H      8.111589    1.651180   -1.917384
H      8.635618    0.838911   -0.408392
H      8.438657   -0.130666   -1.963629
H     -6.438171    0.966233    3.390314
H     -6.339487   -1.633515    0.081184
H      5.902155    0.806021   -2.943215
H      7.116858    0.008771    1.039200
H     -4.093354    1.695381    2.892247
H     -3.997207   -0.900271   -0.410904
H      3.551332    0.318295   -2.264297
H      4.784383   -0.484965    1.748493
H     -0.176066    1.404922    0.168298
H      0.289368   -0.846652    0.688747
H      0.855291    1.634886   -3.484756
H     -0.113873   -3.079558   -2.720532
H     -2.408039   -2.006370    0.899469
H     -1.001537   -2.861742    0.106354
H     -0.737738   -1.831352    1.547112
H      3.840884   -1.704300    0.044574
H     -2.806045    0.850492    0.861543
H     -3.114400    1.716154   -0.745657
H      1.403604   -1.817654    0.463504
H     -0.866003    2.379230    0.521561
H     -0.681679    1.658123   -1.166672
H      4.856095    0.454823   -0.485248
H     -3.143159   -0.965808   -0.709509
H     -2.049299   -0.099460   -1.914016
H      1.111432    2.359132   -0.191224
H     -0.559237    0.187246    1.518329
