40

C     -1.868517   -3.464618    1.011768
C     -1.211277    3.039531    0.181934
C      1.758149   -0.778610    1.042146
C     -2.730356   -1.124912    0.461939
C      0.945058    2.042408   -0.383236
C     -1.999509    0.119216    0.922271
C      1.119425    1.281537   -1.647084
C     -0.565819   -1.809800   -0.316764
C      3.422098   -0.197381   -0.569088
C     -1.642954   -2.172899    0.362520
C     -0.360254    1.758066    0.229823
C      1.960376   -0.408366   -0.187134
C     -1.167936    0.612339   -0.244259
C      0.975949   -0.196414   -1.266335
C     -0.450912   -0.484412   -0.926181
O      4.260764   -0.457210    0.516538
H     -2.362484   -3.289153    2.008245
H     -0.976257   -4.065471    1.175232
H     -2.653705   -4.005450    0.412826
H     -0.640227    3.886595    0.567655
H     -2.129759    2.810622    0.757150
H     -1.533993    3.181833   -0.882295
H      2.546911   -0.936363    1.769180
H      0.767748   -0.942096    1.412601
H     -3.515466   -1.439682    1.172546
H     -3.118336   -0.911660   -0.555766
H      1.812957    1.908885    0.308825
H      0.999773    3.146391   -0.633867
H     -2.799741    0.871555    1.122517
H     -1.399592   -0.068285    1.837393
H      0.358420    1.582342   -2.378909
H      2.108220    1.439407   -2.060916
H      0.234338   -2.516606   -0.413927
H      3.719196   -0.855193   -1.395783
H      3.595072    0.848028   -0.885624
H     -0.169214    1.637193    1.347545
H     -1.950945    1.063888   -0.937475
H      1.309843   -0.767378   -2.142144
H     -0.963801   -0.616649   -1.943161
H      4.316757    0.278773    1.149292
