38

C      3.162904    2.307315    0.694049
C     -0.330091   -3.122794   -0.024179
C     -1.127288    1.359392    1.556555
C      2.370648   -0.102659    0.854607
C     -1.943922   -1.334905   -0.349673
C      1.840226   -1.144669   -0.047962
C     -2.039497   -0.269229   -1.411294
C      1.196167    1.457321   -0.553942
C     -3.145933    1.762004    0.384142
C      2.184988    1.237600    0.268043
C     -0.544619   -1.608102    0.131917
C     -1.728324    1.316959    0.406182
C      0.515937   -0.930579   -0.677103
C     -1.207255    0.907019   -0.883592
C      0.202461    0.491835   -1.027344
O     -3.640844    2.137697    1.463990
H      2.994027    2.616359    1.739198
H      3.093678    3.185969    0.021982
H      4.167071    1.837927    0.589854
H      0.630640   -3.341545   -0.537791
H     -0.395466   -3.639479    0.959938
H     -1.118252   -3.582738   -0.655645
H     -1.680954    1.712689    2.426952
H     -0.135049    1.065859    1.727585
H      3.474775   -0.327164    0.992477
H      1.982315   -0.169132    1.898731
H     -2.454475   -2.234579   -0.750834
H     -2.539177   -1.044088    0.563003
H      1.817001   -2.100910    0.561213
H      2.648188   -1.372062   -0.806957
H     -3.104197   -0.008112   -1.542857
H     -1.577406   -0.650757   -2.331620
H      1.095821    2.488751   -0.937520
H     -3.755952    1.780367   -0.479984
H     -0.395985   -1.400108    1.194071
H      0.557989   -1.557881   -1.626407
H     -1.428693    1.742958   -1.609624
H      0.358540    0.533472   -2.180162
