57

C     -4.206546    1.444491   -1.507618
C      1.297211    2.990565    0.869755
C     -7.163592   -1.177043    2.582824
C     -7.084013   -1.456939    1.245170
C      7.547587    0.111879   -1.369529
C      7.721209   -0.371442    0.948691
C      8.905675   -0.189825   -1.516565
C      9.077547   -0.675840    0.818003
C     -7.081942    0.196462    2.669354
C     -1.368079   -0.814139    0.002561
C      5.515257    0.337714    0.033306
C     -3.868607   -0.213891    0.225874
C      2.419931    0.923360    0.313129
C     -5.553878   -0.569972   -1.459903
C      6.969804    0.015934   -0.128206
C      9.649336   -0.577103   -0.429464
C     -2.387873    0.021753    0.243800
C     -0.106807   -0.337757    0.082206
C      2.308425   -0.401174   -0.015327
C     -6.840866   -0.073802   -0.888461
C     -6.959750   -0.272798    0.578374
C      1.092431   -1.049863   -0.136821
C      3.554540   -1.155220   -0.254002
C      0.079274    0.958196    0.400832
Cl    11.358407   -0.947617   -0.664288
N      4.712825   -0.773932   -0.208039
N     -4.376026    0.107508   -1.058938
N      1.249260    1.602915    0.523079
O     -7.849968   -0.903104   -1.441706
O      1.068287   -2.271140   -0.442122
O      3.348284   -2.541718   -0.588425
O     -6.962701    0.682325    1.459909
S     -1.635213    1.545947    0.601908
H     -4.950236    1.794549   -2.223053
H     -3.206382    1.497398   -2.030315
H     -4.144037    2.187581   -0.686309
H      0.894836    3.645619    0.053939
H      0.675648    3.141472    1.799142
H      2.344165    3.307657    1.037415
H     -7.269823   -1.879543    3.424754
H     -7.114214   -2.437346    0.804690
H      6.979521    0.413271   -2.231276
H      7.301992   -0.458229    1.939486
H      9.371193   -0.119989   -2.477552
H      9.691200   -0.982093    1.645341
H     -7.114857    0.751251    3.610926
H     -1.621227   -1.881583   -0.256433
H      5.361558    1.185170   -0.705808
H      5.451196    0.726390    1.090353
H     -4.018229   -1.284063    0.412601
H     -4.262468    0.438730    1.053456
H      3.348755    1.428790    0.409549
H     -5.452229   -1.653438   -1.194538
H     -5.686909   -0.582732   -2.579709
H     -7.097077    0.954838   -1.208715
H     -8.067041   -0.529652   -2.335048
H      4.155235   -3.113716   -0.842253
