39

C     -2.515168    2.015753    0.317510
C     -1.620962    2.461487   -0.779533
C     -2.562709    0.494430    0.457828
C      2.741979   -0.983141    1.418234
C      3.761449   -0.482781    0.650102
C     -0.433910    1.665397   -1.073855
C     -0.682812   -0.716950   -1.490696
C     -1.185257   -1.998230   -0.993593
C      0.390355   -1.324671    1.977305
C      2.151151    0.503318   -0.786809
C      1.410548   -0.730501    1.069624
C      3.471434    0.261152   -0.453582
C     -1.145355    0.123025    0.777603
C      1.090594    0.019315   -0.042192
C     -0.987418   -1.263271    1.304287
C     -0.317486    0.310872   -0.447077
N     -1.075347   -2.292865    0.371888
O      4.483679    0.782495   -1.252849
H     -2.167725    2.395644    1.300413
H     -3.559891    2.376616    0.191114
H     -1.341599    3.536796   -0.563185
H     -2.275555    2.556197   -1.699151
H     -3.248412    0.280339    1.298491
H     -2.911660    0.015175   -0.459211
H      2.994528   -1.573562    2.293678
H      4.781479   -0.685501    0.930843
H     -0.306806    1.571036   -2.189088
H      0.490798    2.239389   -0.763896
H      0.240818   -0.840561   -2.130277
H     -1.427419   -0.246404   -2.172824
H     -0.659154   -2.826891   -1.559733
H     -2.267785   -2.141559   -1.290369
H      0.361422   -0.687877    2.889601
H      0.651163   -2.354664    2.251733
H      1.918514    1.093786   -1.662919
H     -0.750586    0.820083    1.560516
H     -1.718689   -1.404519    2.135465
H     -0.575948   -3.159905    0.632232
H      4.797742    0.191551   -2.017629
