39

C     -2.927859    1.135823   -0.375464
C     -1.752242    2.042603    0.013758
C     -2.461653   -0.309809   -0.449219
C      2.974678   -0.351449   -1.105779
C      3.641292    0.849793   -0.936820
C     -1.024972    1.307464    1.137813
C     -0.149052   -0.938706    1.654683
C     -0.770155   -2.244312    1.380267
C      1.038377   -1.819147   -0.777954
C      1.719423    1.651151    0.304783
C      1.729922   -0.541086   -0.588872
C      2.988428    1.835930   -0.225659
C     -0.984344   -0.336614   -0.645643
C      1.107116    0.466902    0.116865
C     -0.453953   -1.704930   -0.942506
C     -0.269590    0.125136    0.634778
N     -1.050585   -2.581432    0.038746
O      3.628539    3.059718   -0.034948
H     -3.716190    1.246772    0.407485
H     -3.363426    1.476758   -1.326718
H     -2.158753    2.972256    0.478912
H     -1.103019    2.248481   -0.836990
H     -2.938794   -0.762188   -1.338219
H     -2.736482   -0.783300    0.501985
H      3.516251   -1.121917   -1.676436
H      4.643899    0.995712   -1.355917
H     -0.497256    1.972135    1.820766
H     -1.863603    0.875236    1.768584
H     -0.599016   -0.547735    2.619073
H      0.937905   -1.072891    1.941536
H     -1.725278   -2.386299    1.971066
H     -0.103166   -3.060877    1.794192
H      1.337332   -2.495694    0.053117
H      1.458727   -2.310848   -1.702274
H      1.212494    2.426209    0.859893
H     -0.688453    0.355858   -1.475677
H     -0.761266   -2.017148   -1.942114
H     -2.040990   -2.813832   -0.170588
H      4.205716    3.156276    0.792711
