35

C     -3.771721    0.360259    1.645631
C     -2.706668    1.043138    2.142856
C     -3.662772   -0.243160    0.426088
C     -1.513308    1.132124    1.425093
C      1.187786   -0.262616    1.411188
C      3.460928    0.014986   -0.204051
C     -2.456680   -0.823287   -1.624389
C      0.909999    0.300367   -2.770341
C     -2.463795   -0.151695   -0.291531
C     -1.373756    0.531288    0.189799
C      1.103946    0.208612    0.130632
C     -0.159092   -0.214659   -1.831493
C      2.447588   -0.600606    1.887016
C      3.560487   -0.462718    1.091219
C      2.236297    0.351180   -0.688366
C     -0.147988    0.623799   -0.548966
N     -1.418221   -0.240268   -2.472542
O      2.572764   -1.089564    3.203155
O      4.814372   -0.811714    1.600982
O      2.007662    0.846289   -1.992952
H     -4.701898    0.291680    2.207314
H     -2.806746    1.523048    3.121953
H     -4.518201   -0.783070    0.042442
H     -0.737972    1.708373    1.910785
H      0.308609   -0.380409    2.033547
H      4.336765    0.127893   -0.840180
H     -3.422856   -0.582993   -2.110368
H     -2.360566   -1.921924   -1.526645
H      1.260757   -0.558098   -3.376914
H      0.496813    1.071489   -3.444215
H      0.096044   -1.261136   -1.522974
H      0.039751    1.691418   -0.908983
H     -1.725204    0.623043   -2.928237
H      3.473071   -1.344831    3.581471
H      5.633806   -0.716240    1.031976
