107

C     -9.468552   -4.752533   -2.501582
C      8.140961   -3.332924    1.524976
C     10.609505   -0.801712   -0.083550
C      5.636962    0.342465   -2.346643
C     -7.638744    2.159126   -2.253139
C     -2.274918    1.711670    2.172853
C      3.152090    2.804610    1.204764
C     -9.218431   -3.677225   -1.724704
C     -7.838255   -3.309295   -1.473221
C     -7.492590   -2.282334   -0.735340
C     -8.498383   -1.411415   -0.097663
C      6.338813   -1.876308   -0.289931
C      7.774976   -1.568136   -0.084996
C      5.388469   -0.978476    0.396681
C     -8.430768    0.019865   -0.554971
C     -4.933255    2.456849   -1.474975
C     -4.159794   -0.665589    0.589928
C     10.842443   -2.498399    1.608678
C     -6.045580    2.956038   -0.594760
C     -3.086874   -0.486775    1.583747
C     12.265244   -2.240601    1.765822
C      3.619454    1.314537   -1.444924
C     -0.660146    1.125542   -0.794764
C      2.656246    0.503399    2.084536
C      8.612895   -2.175143    0.691997
C     10.066436   -1.857551    0.776865
C      5.095243    1.061440   -1.156075
C      1.303109    0.910595    2.466376
C      5.381577    0.472495    0.136740
C     -4.086387    1.399717   -0.856686
C     -4.876677    0.541812    0.106532
C      0.541322    0.758464    0.037787
C     -7.166154    0.729399   -0.275256
C      2.813978    0.899072   -0.275916
C     -1.974146    0.821243   -0.158909
C      0.222915    0.952727    1.471577
C     -7.278056    2.150892   -0.800493
C     -1.992930    0.491110    1.285313
C      3.394650    1.318683    1.069736
O     12.949478   -1.402380    1.174146
O      0.903817   -0.044756    3.457269
O     -8.317403    2.754942   -0.066683
O     -5.996539    0.111755   -0.649220
O     -2.902679    1.878710   -0.326444
O      1.581834    1.598722   -0.331039
O      4.727184    1.094175    1.214014
O     -0.782780   -0.024182    1.728106
H    -10.489230   -5.069266   -2.720155
H     -8.625420   -5.277395   -2.895342
H      8.663888   -4.249391    1.183197
H      7.070709   -3.467771    1.449871
H      8.440543   -3.046438    2.573781
H     10.687786    0.190297    0.426024
H      9.961973   -0.636289   -0.983362
H     11.609141   -1.104678   -0.529894
H      6.705657    0.145722   -2.357439
H      4.982922   -0.482255   -2.708320
H      5.514320    1.108899   -3.206572
H     -7.337008    1.223721   -2.779545
H     -8.762565    2.189912   -2.321434
H     -7.201137    3.068504   -2.757092
H     -3.304948    1.695692    2.585558
H     -2.208193    2.650063    1.580667
H     -1.622987    1.736028    3.071137
H      2.749237    3.255991    0.268287
H      2.500251    3.095210    2.026950
H      4.117801    3.357941    1.377991
H    -10.092793   -3.172462   -1.349842
H     -7.015174   -3.890742   -1.902346
H     -6.403246   -2.081288   -0.581416
H     -9.527606   -1.743305   -0.251056
H     -8.370479   -1.452528    1.043290
H      6.215364   -1.907767   -1.421372
H      6.115959   -2.940439   -0.021624
H      8.142660   -0.703539   -0.666331
H      4.358580   -1.442256    0.312806
H      5.585266   -1.140621    1.523088
H     -9.246473    0.548742    0.033961
H     -8.770738    0.102983   -1.614199
H     -4.282749    3.322591   -1.767044
H     -5.424354    2.100118   -2.422951
H     -3.919210   -1.309561   -0.283631
H     -4.958763   -1.277709    1.123398
H     10.365337   -3.290416    2.222040
H     -5.701763    3.075969    0.435141
H     -6.277457    4.003230   -0.973596
H     -2.607588   -1.495128    1.720588
H     -3.574529   -0.279306    2.583928
H     12.826492   -2.863136    2.503331
H      3.475918    2.380637   -1.709786
H      3.266291    0.722537   -2.325523
H     -0.649862    2.230334   -1.003658
H     -0.502378    0.651074   -1.784844
H      2.616171   -0.542034    1.681496
H      3.276074    0.446163    3.003668
H      5.633510    2.086004   -1.193696
H      1.329659    1.851299    3.106554
H      6.483921    0.789326    0.366659
H     -3.782763    0.704509   -1.696965
H     -5.280925    1.182898    0.888712
H      0.826421   -0.308709   -0.123646
H     -7.092144    0.858936    0.847473
H      2.504605   -0.169374   -0.293831
H     -2.392535   -0.048051   -0.711150
H     -0.256771    1.981322    1.528172
H     -0.062710    0.003340    3.615874
H     -9.181520    2.677539   -0.572716
