56

C     -4.216490   -3.060142    1.917150
C     -4.833831   -2.037183    1.234304
C     -2.859679   -3.089095    2.129081
C     -4.027827   -1.034402    0.767356
C     -2.064290   -2.062684    1.647337
C     -3.312078    2.145240    0.260514
C     -3.072768    0.679252   -1.587632
C     -4.152711    2.924267   -0.505062
C     -3.917506    1.464298   -2.353398
C      1.479447   -0.696626   -0.980696
C      0.981234    1.488513   -0.266423
C      0.303400   -0.981644   -0.020216
C     -0.297674    1.060314   -0.987447
C      2.934834    0.485872    0.543930
C      4.227515   -0.245079    0.218861
C      6.061561   -0.182949   -1.166187
C     -2.636694   -1.025513    0.961818
C     -2.775103    1.023865   -0.286279
C     -4.464787    2.604906   -1.799833
C      7.121891   -0.270552   -0.158955
C     -1.841509    0.092897    0.452276
Cl    -5.539175    3.609460   -2.765152
N      2.044783    0.566133   -0.567593
N     -0.787068   -0.192731   -0.445450
O      8.210887   -0.854121   -0.507793
O      7.059871    0.214720    1.123991
O      4.891410    0.398429   -0.790189
Cl     0.685270    0.000000    0.000000
Cl     0.690017    0.000000    0.000000
H     -4.821501   -3.878823    2.306214
H     -5.907531   -2.060135    1.093191
H     -2.374795   -3.911112    2.676590
H     -4.508497   -0.212752    0.221151
H     -0.988715   -2.129723    1.857424
H     -3.058867    2.389461    1.285062
H     -2.652802   -0.217720   -2.048626
H     -4.591717    3.821975   -0.089124
H     -4.176579    1.230403   -3.376513
H      2.230015   -1.510023   -0.898232
H      1.140960   -0.683181   -2.026942
H      0.809850    1.636938    0.808321
H      1.236174    2.495785   -0.704957
H      0.095229   -2.080048   -0.198178
H      0.710895   -0.769445    0.970842
H     -1.035841    1.880596   -0.888512
H     -0.036659    0.973268   -2.060297
H      2.527589    0.004706    1.451661
H      3.222166    1.512447    0.838863
H      4.043935   -1.322613    0.012626
H      4.826198   -0.207302    1.145520
H      6.500129    0.377820   -2.033860
H      5.884125   -1.212682   -1.590495
H     -1.433220    0.694299    1.332209
H      7.841817    0.152419    1.766537
H     -0.685270    0.000000    0.000000
H     -0.690017    0.000000    0.000000
