107

C    -11.573575    2.137924   -1.964728
C      9.171988    0.771112    2.074151
C     11.679666   -0.168797   -0.789252
C      5.061577   -2.534695   -1.686105
C     -6.929913   -2.254074    0.281882
C     -1.523271    2.489138    0.192029
C      2.967295    1.509796   -0.092049
C    -10.836161    1.370778   -1.141540
C    -11.342665    1.000910    0.161518
C    -10.656761    0.263161    0.977700
C     -9.321617   -0.263985    0.673801
C      7.442582   -0.770433    0.374170
C      8.874924   -0.513541    0.089758
C      6.597663   -0.121289   -0.710266
C     -8.384725    0.284181    1.726922
C     -4.615305   -0.986053    2.516287
C     -4.461671    0.606931   -0.934361
C     11.902485    1.068933    1.258902
C     -5.626604   -2.060323    2.338419
C     -3.424240    1.665010   -1.071237
C     13.286168    1.302997    0.930709
C      3.314947   -1.870557   -0.012876
C     -0.781353   -0.276604    0.815155
C      2.364600    0.882589   -2.358977
C      9.730070    0.172346    0.807656
C     11.127157    0.373329    0.453113
C      4.761825   -1.811431   -0.399659
C      0.911910    0.745839   -2.445148
C      5.153416   -0.356674   -0.437682
C     -4.154614   -0.422282    1.225018
C     -5.038244    0.503541    0.493351
C      0.193944   -0.393584   -0.335677
C     -6.957921   -0.153798    1.580267
C      2.423484   -0.885767   -0.675090
C     -2.151375    0.066540    0.350985
C      0.110027    0.845692   -1.184663
C     -6.894094   -1.664451    1.673664
C     -2.072682    1.276355   -0.561661
C      3.055400    0.397755   -1.118884
O     13.820656    0.875839   -0.100476
O      0.491874   -0.430776   -3.110804
O     -7.954106   -2.156616    2.444152
O     -6.366559    0.197263    0.401103
O     -2.940470    0.291998    1.448683
O      1.440915   -0.533787    0.270149
O      4.404440    0.252506   -1.434456
O     -1.240335    0.959157   -1.602805
H    -12.539827    2.452875   -1.605227
H    -11.234846    2.435011   -2.942048
H      9.384276    0.095619    2.897721
H      8.092807    1.045269    1.967721
H      9.648192    1.784841    2.239677
H     10.942615   -0.712141   -1.401895
H     11.997105    0.686343   -1.437318
H     12.502677   -0.904515   -0.612942
H      4.247326   -3.248257   -1.954090
H      5.213747   -1.867765   -2.547869
H      5.979160   -3.163284   -1.546536
H     -7.702709   -3.044651    0.173189
H     -7.013188   -1.444234   -0.448833
H     -5.949570   -2.737240    0.094442
H     -2.408356    3.003887    0.669299
H     -0.854394    2.223872    1.006766
H     -1.106903    3.232088   -0.510236
H      2.587187    2.469794   -0.554539
H      2.399838    1.228860    0.800307
H      3.989135    1.821988    0.281304
H     -9.886991    1.087624   -1.549555
H    -12.339681    1.382564    0.414846
H    -11.109506    0.029121    1.939431
H     -8.911082   -0.008185   -0.299630
H     -9.318946   -1.379379    0.729884
H      7.160700   -0.453748    1.370442
H      7.260784   -1.887609    0.367321
H      9.218029   -0.977589   -0.851567
H      6.832778    0.945671   -0.774522
H      6.929113   -0.593569   -1.679276
H     -8.466542    1.399540    1.657979
H     -8.777280    0.020794    2.730056
H     -4.811895   -0.260346    3.326742
H     -3.688223   -1.537196    2.924508
H     -5.336876    0.951144   -1.563142
H     -4.194241   -0.371532   -1.338498
H     11.497506    1.471543    2.208947
H     -5.827805   -2.567059    3.327919
H     -5.143705   -2.891766    1.738254
H     -3.824363    2.585693   -0.562745
H     -3.368573    1.948775   -2.148950
H     13.884633    1.895387    1.646633
H      3.239992   -1.810601    1.112875
H      2.972298   -2.924260   -0.233310
H     -0.841445   -1.318587    1.249142
H     -0.395952    0.344529    1.643571
H      2.821105    0.308370   -3.217680
H      2.681337    1.947323   -2.532476
H      5.320841   -2.317585    0.437528
H      0.523886    1.572264   -3.117372
H      4.927070    0.046556    0.571433
H     -3.924846   -1.289308    0.553433
H     -4.970996    1.557168    0.874973
H     -0.073521   -1.254613   -0.961011
H     -6.400313    0.361841    2.390423
H      1.896820   -1.414420   -1.511390
H     -2.508140   -0.773272   -0.279409
H      0.302462    1.762354   -0.607259
H      1.115480   -0.593363   -3.876799
H     -7.678936   -2.034735    3.402123
