125

C     -5.924614   -1.905081   -1.907856
C     -5.897000   -2.339343    0.472994
C     -6.886576   -0.257291   -0.289481
C     -0.846052   -6.784488    0.475349
C      0.455663   -6.344057    0.384821
C     -1.880867   -5.886095    0.207724
C     -4.290344    4.548431    0.465127
C     -4.891034    3.254974    0.924212
C      9.969484    3.420722   -2.772719
C      9.674812    4.326279   -1.769991
C      0.700733   -5.055110    0.040045
C     -1.593954   -4.578229   -0.141667
C      9.218721    2.291922   -2.957081
C     -2.925325    4.443077   -0.114405
C     -3.977906    2.418756    1.748524
C      8.593269    4.051355   -0.958812
C      7.377719    0.890420   -2.325154
C      6.316088    0.705914   -1.466266
C      0.049655   -2.738938   -0.608196
C     -2.483513    2.196476   -1.110075
C      3.095936   -1.193417    1.996735
C     -1.824702    1.207234    1.472907
C     -2.182879   -1.042552    0.719723
C     -0.303189   -4.118756   -0.237202
C      8.149072    2.036202   -2.141981
C     -2.256930    3.106050    0.038541
C     -2.542726    2.506834    1.384011
C      7.831670    2.917030   -1.137805
C      5.987288    1.575952   -0.460062
C      0.209164   -1.839514    0.599226
C      2.839930    0.067688    1.257291
C     -2.481096    0.726351   -0.832979
C     -1.044166   -1.730528    1.420513
C      4.393225   -1.089389    2.756095
C      4.855538    1.353163    0.427110
C      1.622235    0.165681    0.458130
C     -3.789329    0.099799   -1.186601
C     -5.751089   -1.217854   -0.581909
N      5.335583   -1.914076    2.495653
N      6.763575    2.671719   -0.321074
N      0.711037   -0.606184    0.286359
N      3.971624    0.261876    0.347653
N     -4.505504   -0.574967   -0.380170
N     -1.926369    0.327051    0.396853
O     -0.710079   -1.090674    2.617412
O      4.586700   -0.126969    3.722976
O      4.629244    2.195978    1.351028
O      1.473720    1.425615   -0.266384
O     -4.265062    0.257366   -2.478346
C      2.289888   -1.045277    1.434725
C      1.123906   -0.652165    0.812084
C     -3.518219   -1.121126   -0.432621
C     -1.021154    1.405375   -0.010114
C      3.515313   -0.528953    1.065033
C     -0.006844    0.704286   -0.866210
C     -2.570297   -0.024199   -0.761848
C      2.355133    0.742512   -0.524422
N      4.625471   -0.893448    1.647112
N      3.508860    0.373008    0.070219
N      1.150493    0.247391   -0.174708
O     -4.509524   -0.608240    0.397336
O      2.408597    1.691605   -1.561435
O     -1.974942    0.501391    0.393627
S     -1.022092   -0.679873   -1.521213
H     -4.943006   -1.948016   -2.409258
H     -6.714415   -1.376397   -2.476270
H     -6.300097   -2.961684   -1.811077
H     -5.548701   -2.008561    1.453061
H     -6.951372   -2.655913    0.565687
H     -5.310065   -3.227986    0.165138
H     -7.357511    0.011413   -1.260715
H     -6.519747    0.624921    0.265466
H     -7.656089   -0.723104    0.362865
H     -1.110181   -7.794293    0.744545
H      1.236458   -7.055687    0.596004
H     -2.902820   -6.241814    0.281666
H     -4.351291    5.275693    1.308050
H     -4.983067    4.973070   -0.318335
H     -5.263935    2.643859    0.056412
H     -5.798268    3.487737    1.516828
H     10.816526    3.633517   -3.410215
H     10.285015    5.209635   -1.647746
H      1.730344   -4.716010   -0.028447
H     -2.447842   -3.949021   -0.336458
H      9.450563    1.574679   -3.749244
H     -2.920880    4.733241   -1.195255
H     -2.290317    5.203374    0.400631
H     -4.301612    1.352943    1.633600
H     -4.173694    2.645447    2.830475
H      8.333423    4.753178   -0.151095
H      7.618892    0.195243   -3.107189
H      5.684918   -0.191282   -1.582578
H     -0.674474   -2.371156   -1.338164
H      1.040663   -2.772839   -1.107663
H     -3.492359    2.446211   -1.542670
H     -1.782164    2.490430   -1.949934
H      3.198071   -2.015820    1.240652
H      2.343696   -1.406816    2.779907
H     -0.732825    1.447843    1.643103
H     -2.143749    0.743142    2.454126
H     -2.402481   -1.600737   -0.185012
H     -3.052974   -1.100691    1.399832
H     -1.142642    3.324119    0.045543
H     -2.060688    3.195916    2.141306
H      0.930949   -2.422712    1.257968
H      2.832521    0.901371    2.012644
H     -1.780318    0.284877   -1.616913
H     -1.382659   -2.742829    1.686971
H      5.255930   -2.672796    1.770200
H      4.095961   -0.464790   -0.381720
H     -1.054675   -1.550851    3.404685
H      5.424429   -0.109815    4.320638
H      0.888086    1.426877   -1.089301
H     -5.250907    0.486480   -2.670358
H      2.258252   -1.773360    2.231765
H      0.152740   -1.049679    1.092207
H     -4.035500   -1.427669   -1.376391
H     -3.004269   -1.957100    0.044968
H     -0.582027    1.862750    0.874434
H     -1.541767    2.218438   -0.578271
H      0.239071    1.332091   -1.718396
H     -2.985040    0.767701   -1.387234
H      4.632905   -1.583502    2.408645
H     -4.164387    0.156734    0.923622
H      2.675433    1.358357   -2.482914
