65

C     -4.488807   -0.681836   -0.493388
C      5.944271   -1.139831   -0.321130
C      5.711772   -0.358279    0.967063
C     -3.481879   -1.467704   -0.142689
C     -2.734400    0.724228    0.075849
C     -4.762187    1.747368   -0.980098
C     -0.608652   -2.329790    0.219854
C     -4.267070    0.704142   -0.008321
C      4.731606   -0.263813   -0.115428
C     -2.484443   -0.668941    0.617375
C      1.065153   -0.962942    0.199682
C      2.277584   -0.269569    0.150227
C     -0.081224   -0.265662    0.405316
C      1.165040    1.734759    0.505737
N      1.173607    3.013935    0.655062
N      0.725771   -2.264633    0.083456
N      3.481631   -0.971954   -0.060071
N      2.306971    1.062388    0.303535
N      0.010034    1.071299    0.552472
N     -1.138211   -1.112690    0.419945
O     -4.108318    1.620233   -2.181492
C     -3.509343   -0.162946    0.255234
C     -2.320356   -0.849947    0.510477
C      3.259500    0.520872    0.012424
C      0.807075   -0.528024    1.277201
C     -3.490722    0.868664   -0.659305
C      0.006398   -1.259510    0.186205
C      2.679122   -0.848299    0.056648
C     -1.181808    0.467989   -0.986178
N     -4.572676    1.523667   -0.917860
N     -2.318873    1.150683   -1.252913
N     -1.174569   -0.527322   -0.111245
O      3.873618    0.737079   -1.221849
O     -0.010810    0.823988   -1.644740
O      2.054374   -1.131007    1.259398
S      1.282821   -1.049125   -1.127232
H     -5.347016   -1.015956   -1.054912
H      5.814924   -2.226228   -0.225143
H      6.763571   -0.784898   -0.983769
H      5.405909   -0.952710    1.871089
H      6.426740    0.430425    1.205059
H     -3.414825   -2.511541   -0.378751
H     -2.366810    1.520074    0.722756
H     -2.283903    0.752141   -0.948099
H     -5.854085    1.643149   -1.049848
H     -4.548941    2.732933   -0.535443
H     -1.200878   -3.229991    0.178071
H     -4.629509    0.870572    1.021454
H      4.690657    0.682308   -0.721772
H     -2.737423   -0.653451    1.698009
H      0.286409    3.539210    0.812495
H      3.434008   -2.014191   -0.173087
H      3.198996    1.614414    0.273385
H     -4.076073    0.683033   -2.504078
H     -4.434610   -0.432317    0.765083
H     -2.348494   -1.647228    1.221320
H      4.059333    0.584649    0.773695
H      2.550519    1.324274    0.190244
H      0.871329    0.511783    0.954722
H      0.328833   -0.628260    2.256488
H     -0.128010   -2.312957    0.427111
H      3.430368   -1.648469   -0.124627
H     -4.577829    2.301365   -1.601645
H      4.865540    0.718283   -1.162024
H     -0.000730    1.492115   -2.408245
