125

C     -6.977543   -0.907948    3.194131
C     -5.916672    1.052655    4.178149
C     -7.660169    1.336822    2.523931
C      3.874876    1.947087   -4.217920
C      3.521011    0.655889   -3.912848
C      3.044000    2.971738   -3.892936
C     -6.937544   -1.612593   -1.860122
C     -6.761402   -2.738585   -0.905986
C     11.739924   -1.217739   -0.273717
C     11.323917   -2.293094    0.465998
C      2.310480    0.369832   -3.267729
C      1.838563    2.686921   -3.250342
C     10.871153   -0.196971   -0.604547
C     -5.742872   -1.285631   -2.687664
C     -5.411508   -2.916913   -0.325387
C     10.016939   -2.343544    0.879152
C      8.656289    0.772193   -0.517008
C      7.333215    0.693249   -0.089862
C      0.191422    1.153913   -2.258033
C     -4.889511    0.023578   -0.723773
C      2.732048    1.203086    2.268072
C     -3.126030   -2.158442   -0.106855
C     -1.469959   -0.449999   -0.396877
C      1.478404    1.401594   -2.942585
C      9.562566   -0.218887   -0.207377
C     -4.571962   -1.020091   -1.741744
C     -4.269240   -2.313517   -1.064171
C      9.139195   -1.313738    0.545760
C      6.949511   -0.395445    0.648566
C      0.354553    1.212449   -0.743513
C      3.156198    0.090052    1.384589
C     -3.751612    0.129636    0.268576
C     -1.049256    0.949950   -0.154312
C      2.637165    2.535533    1.647183
C      5.594757   -0.597292    1.143949
C      2.243590   -0.160659    0.211763
C     -4.318074    0.197178    1.671979
C     -6.435240    0.497542    2.884890
N      1.546193    3.211479    1.782980
N      7.866422   -1.336602    0.926553
N      1.353885    0.482932   -0.240586
N      4.526049    0.299887    0.878256
N     -5.525170    0.375374    1.827656
N     -2.724711   -0.801139    0.144758
O     -0.986986    1.253432    1.213453
O      3.670234    3.104303    0.920933
O      5.347416   -1.612707    1.842653
O      2.535355   -1.412031   -0.457021
O     -3.428930    0.054059    2.710229
C     -3.333037   -0.845177   -0.410249
C     -2.099739   -1.176072    0.083239
C      3.567044    1.020648   -0.321351
C      1.003059   -1.463468   -0.285799
C     -3.567730    0.434583   -0.844915
C      0.146985   -0.720191    0.685762
C      2.665222   -0.035967    0.243850
C     -1.346912    0.962191   -0.270910
N     -4.720474    0.791684   -1.319551
N     -2.553722    1.315801   -0.762147
N     -1.104713   -0.282531    0.156386
O      4.185119    1.673739    0.742986
O     -0.316919    1.889288   -0.195799
O      2.025369   -0.718289   -0.736388
S      1.242380    0.680100    1.124950
H     -7.887064   -0.864492    3.812574
H     -6.143587   -1.468371    3.636305
H     -7.193197   -1.364372    2.193761
H     -5.312773    1.961797    4.076725
H     -5.432570    0.266203    4.807736
H     -6.826529    1.360950    4.769485
H     -8.421326    1.117469    3.285434
H     -7.419227    2.411500    2.558271
H     -8.091364    1.054742    1.543345
H      4.820718    2.170581   -4.721520
H      4.190983   -0.138973   -4.178879
H      3.311869    3.979498   -4.126457
H     -7.348579   -0.673037   -1.392700
H     -7.753444   -1.921855   -2.580042
H     -7.170626   -3.701273   -1.333923
H     -7.463881   -2.538586   -0.042736
H     12.767087   -1.182748   -0.596975
H     11.960656   -3.114797    0.749409
H      2.102018   -0.667860   -3.062583
H      1.222161    3.547259   -3.017864
H     11.220846    0.633429   -1.182965
H     -5.469040   -2.175787   -3.298751
H     -5.950512   -0.392127   -3.292755
H     -5.215167   -4.032002   -0.291339
H     -5.352054   -2.635425    0.768450
H      9.612801   -3.175233    1.474707
H      8.991035    1.633070   -1.109001
H      6.630505    1.460971   -0.329421
H     -0.581881    1.892779   -2.585484
H     -0.155829    0.167961   -2.621175
H     -5.190699    0.989622   -1.155501
H     -5.773051   -0.367747   -0.139345
H      1.759830    0.939702    2.792274
H      3.437306    1.334516    3.145248
H     -2.227224   -2.686915   -0.507473
H     -3.319966   -2.628534    0.885430
H     -0.637660   -1.124746   -0.071415
H     -1.536275   -0.630042   -1.509328
H     -3.731461   -0.744398   -2.412264
H     -3.971250   -3.057895   -1.869353
H      0.467536    2.337138   -0.559156
H      3.214028   -0.828682    2.002955
H     -3.353600    1.175350    0.123082
H     -1.686830    1.692681   -0.642198
H      1.419582    4.161703    1.365975
H      4.752313    1.135772    0.294252
H     -0.786836    0.477899    1.772381
H      3.722222    4.090047    0.690244
H      1.790181   -1.834454   -0.994930
H     -3.451121    0.598914    3.556242
H     -4.129591   -1.572429   -0.465466
H     -1.951382   -2.216022    0.422685
H      4.356396    0.524173   -0.908990
H      3.012480    1.785788   -0.890635
H      0.360983   -1.760349   -1.141757
H      1.296919   -2.439520    0.200740
H     -0.004930   -1.284865    1.634334
H      3.234150   -0.643462    0.963788
H     -5.477680    0.090474   -1.369259
H      4.099349    1.149652    1.599080
H     -0.588624    2.840222    0.049780
