60

C      3.967273   -0.727126    0.713120
C     -2.935830   -2.586869   -1.228468
C     -1.567280   -2.796015   -1.139270
C     -2.326767    2.169090   -0.920919
C     -1.437232    3.071565   -0.102918
C      3.033560    1.465314    1.523098
C     -3.504554   -1.409062   -0.846925
C      1.959633    2.323221    1.679868
C      2.881927    0.247386    0.921628
C     -1.688975    1.732116    0.407004
C     -0.813774   -1.753771   -0.646027
C      1.613046   -0.097042    0.474394
C     -1.385200   -0.556316   -0.257275
C      0.574395    0.797079    0.656002
C      0.625511   -2.087033   -0.595691
N     -2.721749   -0.427485   -0.373332
N      0.729493    1.991521    1.247321
N      1.596328   -1.389563   -0.131281
N     -0.775281    0.634653    0.275263
O      0.944485   -3.333229   -1.131715
C      3.469307    0.262220   -0.743287
C      2.256434    0.140954   -1.344885
C     -3.472876    0.246758    0.717793
C     -0.873280   -1.322520   -1.169433
C      3.512782    0.334688    0.635521
C     -0.120147   -0.039879   -1.391079
C     -2.644349   -0.137003   -0.471220
C      1.150706    0.158759    0.664299
N      4.657283    0.451240    1.245318
N      2.352822    0.280526    1.291891
N      1.078197    0.086978   -0.657447
O     -4.376944    1.245791    0.470131
O     -0.029060    0.107212    1.402387
O     -1.753214   -1.155466   -0.140082
S     -1.402992    1.167888   -0.859918
H      4.957363   -0.242619    0.537393
H      4.010441   -1.425949    1.586235
H      3.784515   -1.369096   -0.171366
H     -3.579704   -3.381407   -1.613076
H     -1.105083   -3.727224   -1.439366
H     -3.412373    2.323172   -0.946681
H     -1.911441    1.736330   -1.856189
H     -0.524523    3.390745   -0.608004
H     -1.952876    3.922164    0.432559
H      4.029344    1.737903    1.875123
H     -4.582728   -1.306649   -0.941147
H      2.143258    3.273856    2.164108
H     -2.408916    1.618125    1.252130
H      1.783714   -3.817784   -0.795595
H      4.390805    0.301214   -1.344704
H      2.227815    0.084341   -2.430190
H     -4.043895   -0.659449    1.018583
H     -2.861225    0.533580    1.576753
H     -0.202718   -2.147672   -0.936780
H     -1.450934   -1.607991   -2.095408
H      0.013704    0.104138   -2.463933
H     -3.214789   -0.304452   -1.380511
H      5.529867    0.488415    0.680498
H     -4.017284    2.016975   -0.037241
H     -0.176017   -0.637243    2.089070
