48

C     -1.224767   -2.218666    0.625760
C      4.561282    0.126414   -1.688086
C      3.313390    0.378911   -1.197191
C      5.489023   -0.465768   -0.861806
C     -4.423827    1.718855   -0.382189
C     -5.655567    1.346423    0.050632
C      1.077178    0.198826    1.841334
C      0.002372   -0.833167    2.105315
C     -2.220215    1.428655   -1.281695
C     -3.759513   -0.492453   -0.827748
C      3.856163   -0.521360    0.914324
C      0.552747   -0.458333   -0.301958
C      1.224912    1.782352   -0.134555
C     -3.445475    0.819250   -0.830578
C      2.934172    0.058242    0.119712
C      5.138298   -0.787398    0.429013
C     -1.109730    1.044546   -0.739026
C     -5.959381    0.000491    0.048782
C     -5.016754   -0.907410   -0.387685
C     -0.740771    0.122484    0.250431
C      0.176200    1.724603   -1.194644
C      1.556383    0.397282    0.457838
Cl    -7.530724   -0.539593    0.594435
Cl    -5.448531   -2.605262   -0.362905
N     -1.120586   -0.833931    1.111056
O      6.046319   -1.388502    1.299786
O      0.276702    2.170785   -2.362470
H     -2.258872   -2.566982    0.918686
H     -1.097968   -2.311211   -0.455277
H     -0.493232   -2.853143    1.162586
H      4.872831    0.366177   -2.695302
H      2.617394    0.841289   -1.896718
H      6.497955   -0.701625   -1.169719
H     -4.204201    2.783744   -0.371763
H     -6.381500    2.101443    0.380798
H      0.855065    1.162683    2.379278
H      1.928648   -0.187351    2.457955
H      0.397342   -1.847808    2.238169
H     -0.488033   -0.534610    3.058963
H     -2.215813    2.201232   -2.069554
H     -3.047681   -1.192232   -1.178406
H      3.614202   -0.792704    1.930227
H      0.733389   -0.287168   -1.376253
H      0.718909   -1.523824   -0.150493
H      2.138847    2.248137   -0.526732
H      0.899593    2.471968    0.706504
H     -0.612800    0.944408    1.076431
H      6.976628   -1.588701    0.959066
