73

C     -6.702247    4.034158    0.464348
C     -5.829584   -1.436386    2.245668
C     -2.015711    0.241948   -4.870822
C     -2.026047   -4.235998    1.836025
C      1.117009   -1.280927    1.810315
C      1.288585    1.141416    1.728111
C      8.681133   -0.326766   -0.280809
C      9.547789    0.018533   -1.302414
C      6.415788   -0.359082    0.571586
C      3.887610   -0.308501    1.341714
C      5.499734    0.859240   -1.657945
C     -3.264601    2.564775   -0.370705
C     -5.325690    3.841029   -0.081392
C     -5.391486   -0.713672    1.026886
C     -2.504410   -0.543208   -3.694961
C     -1.538443   -3.400340    0.703142
C      7.323239   -0.034942   -0.420550
C      5.070544   -0.084479    0.463527
C      6.851123    0.587591   -1.558171
C      4.591408    0.536810   -0.669362
C     -2.653527    1.243081    0.048393
C      2.780548   -0.312578    0.340191
C      8.990495    0.641022   -2.410513
C     -3.556371    0.111757   -0.402063
C     -2.709579   -0.821140   -1.252378
C     -1.474042   -1.234566   -0.459489
C     -0.786784    0.011068    0.111819
C      1.403252   -0.110175    0.890107
O     -4.782062    4.716570   -0.805872
O     -6.205470   -0.210474    0.209810
O     -3.141333   -1.612072   -3.867221
O     -0.784016   -3.919955   -0.155875
O      9.804999    0.949248   -3.336428
O     -4.582320    2.699088    0.178931
O     -4.038034   -0.563049    0.737528
O     -2.279401   -0.132737   -2.400239
O     -1.895460   -2.083778    0.581802
O      3.196775    0.710876   -0.550660
O      7.706996    0.900294   -2.508119
O     -1.377176    1.141125   -0.499923
O      0.541151   -0.087712   -0.198835
H     -6.844956    3.425470    1.391785
H     -7.480304    3.725927   -0.249154
H     -6.806967    5.092205    0.703619
H     -6.087047   -0.716893    3.064085
H     -6.671807   -2.106523    1.994719
H     -4.988143   -2.113561    2.548611
H     -0.917754    0.454194   -4.774951
H     -2.576865    1.203280   -4.956351
H     -2.231572   -0.329372   -5.792380
H     -1.251136   -4.984415    2.133739
H     -2.962573   -4.776442    1.555099
H     -2.184648   -3.542586    2.692595
H      1.937535   -1.321557    2.560522
H      1.114283   -2.251409    1.274417
H      0.177445   -1.114250    2.386672
H      2.005144    1.168478    2.552135
H      0.282275    1.205836    2.190839
H      1.361565    2.011446    1.043802
H      9.051959   -0.807352    0.595382
H     10.617346   -0.181185   -1.254843
H      6.816096   -0.853291    1.466196
H      3.871308    0.569498    2.029459
H      3.974083   -1.264122    1.900886
H      5.128415    1.353143   -2.561057
H     -2.613370    3.393217   -0.034817
H     -3.389542    2.570714   -1.473219
H     -2.531071    1.252379    1.153433
H      2.854366   -1.258541   -0.230815
H     -4.371294    0.509126   -1.042972
H     -3.258458   -1.744853   -1.480482
H     -0.809981   -1.766358   -1.178278
H     -1.048714    0.060704    1.165071
