48

C      1.419114   -2.228189   -0.476342
C      5.932736   -0.392064    0.021758
C      5.694997    0.179489   -1.217365
C      4.959429   -0.297986    0.977331
C     -4.773143   -0.776944   -1.424950
C      4.482979    0.833829   -1.454847
C      3.763458    0.356462    0.719811
C     -3.409848   -0.769135   -1.195974
C     -5.669647   -0.041909   -0.640459
C     -1.154464   -0.621444    1.440726
C     -0.094154   -1.697097    1.234355
C      2.317338    1.698379   -0.822971
C     -3.823648    0.736833    0.640817
C     -0.493567   -0.364351   -0.739361
C     -1.166290    1.645325    0.239671
C      3.508580    0.937012   -0.507721
C     -2.941044   -0.019066   -0.174228
C     -5.173471    0.707648    0.390178
C      1.167173    1.185137   -0.501529
C      0.762741   -0.000328    0.108291
C     -0.083582    1.996988   -0.767092
C     -1.538970    0.136141    0.179848
N      1.134788   -1.218230    0.533815
O     -6.040274    1.451398    1.204078
O     -0.166881    2.817911   -1.684169
H      0.725410   -3.092136   -0.399542
H      1.338044   -1.795136   -1.497705
H      2.437440   -2.603769   -0.279691
H      6.876319   -0.908128    0.258828
H      6.482874    0.084746   -1.951613
H      5.112381   -0.729975    1.961572
H     -5.152866   -1.374067   -2.241811
H      4.330110    1.268856   -2.431368
H      3.060388    0.400652    1.532704
H     -2.740667   -1.337679   -1.818027
H     -6.729556   -0.061158   -0.831281
H     -1.036446   -0.001517    2.312847
H     -2.070802   -1.249462    1.666624
H     -0.488539   -2.608167    0.795555
H      0.228384   -1.931605    2.264181
H      2.313525    2.657271   -1.311097
H     -3.423830    1.339958    1.473272
H     -0.534771    0.128779   -1.711817
H     -0.592839   -1.441205   -0.957119
H     -2.070431    2.176489   -0.140953
H     -0.945299    1.964890    1.243375
H      0.518050    0.435364    1.136097
H     -6.251227    2.421189    0.912618
