66

C     -2.519665    3.410756   -1.383562
C     -1.840687   -4.013817   -0.591108
C      0.835754    2.863931    2.885594
C     -2.232619   -0.375659    2.988989
C     -3.585346    0.441880   -1.943333
C     -1.225893    2.667125   -1.681151
C     -0.937755   -2.778373   -0.637379
C      1.596878    1.868926    2.058540
C     -1.182534    0.627305    2.517566
C      5.228470   -1.975948   -2.781941
C      4.625533   -0.908619   -3.407845
C      4.856952   -2.255185   -1.493035
C      3.679211   -0.133848   -2.781023
C      3.904462   -1.480120   -0.853730
C      2.296571    0.412501   -0.816866
C      1.907832    0.185676    0.406834
C      0.296334    1.894470    0.003073
C     -2.391605   -0.199092   -1.302722
C      3.300250   -0.420106   -1.463875
C     -0.862711    1.703479   -0.616157
C     -1.562160   -1.705383    0.307565
C     -1.708975    0.594514   -0.240982
C     -0.786150   -0.484165    0.346992
C     -2.828286   -1.362542   -0.462902
C      0.566093   -0.972893    2.350314
C      0.853851    1.056897    1.091581
C     -0.174904    0.059284    1.596472
O     -3.895516   -1.881941   -0.415084
O      0.722499   -2.158745    2.079760
O      1.179390   -0.539627    3.546726
H     -3.180783    3.281189   -2.237942
H     -2.978042    2.883038   -0.511443
H     -2.319676    4.474665   -1.131540
H     -2.204506   -4.181194    0.435437
H     -2.692688   -3.882277   -1.286693
H     -1.251258   -4.868768   -0.990977
H      0.908811    2.562211    3.959908
H      1.368158    3.879955    2.884560
H     -0.166075    3.109584    2.536881
H     -3.037103   -0.548724    2.283430
H     -2.746655    0.073684    3.907736
H     -1.820425   -1.312654    3.354323
H     -3.277881    0.959187   -2.871947
H     -4.227919    0.997299   -1.270230
H     -4.222676   -0.416603   -2.317842
H     -0.441520    3.458140   -1.769827
H     -1.256763    2.198341   -2.685883
H     -0.974302   -2.438475   -1.688717
H      0.050873   -3.096412   -0.307528
H      2.357712    2.514390    1.484872
H      2.305831    1.266670    2.703674
H     -1.769621    1.489571    2.151186
H     -0.738992    0.997813    3.479818
H      5.970424   -2.591731   -3.258583
H      4.925946   -0.694939   -4.428794
H      5.307050   -3.080178   -0.974658
H      3.221815    0.708338   -3.313719
H      3.660647   -1.762971    0.170325
H      1.862872    1.257711   -1.396466
H      2.310389   -0.617209    0.977899
H      0.921395    2.731965   -0.287894
H     -1.686371   -0.579900   -2.050714
H     -1.814883   -2.242152    1.212197
H     -2.494470    0.918338    0.467036
H      0.047829   -0.523282   -0.432421
H      1.967580   -1.065302    3.897227
