56

C      5.650797   -2.797461    0.651483
C      6.774813   -2.178792    0.141010
C      4.477689   -2.105172    0.864802
C      6.727665   -0.832523   -0.165619
C     -4.729760   -0.085702    1.425347
C     -6.087661   -0.041838    1.743667
C     -7.771995   -0.062974   -1.362357
C      2.147126   -0.453283    0.023893
C     -8.857614   -0.016387   -0.534935
C      1.049402    0.557569   -0.175400
C     -1.084075    0.810342   -1.240693
C     -0.711239   -1.009230    0.259413
C     -2.359545   -0.003040   -1.511763
C     -1.964781   -0.399153    0.860457
C     -5.266740   -0.119134   -0.871506
C      3.791931    1.344538   -0.275554
C     -6.632657   -0.076410   -0.604323
C      3.345991    0.219574    0.647281
C     -4.306115   -0.124758    0.116110
C      4.467145   -0.766004    0.547913
C     -7.024770   -0.037880    0.727489
C      5.581003   -0.117383    0.033458
C      6.116589    2.364462   -0.296441
N      6.505733    2.983128    0.757989
N     -8.360051   -0.001612    0.720838
N     -0.098825   -0.147442   -0.749612
N     -2.947264   -0.169062   -0.190569
N      5.256978    1.261322   -0.185833
O      6.552674    2.796206   -1.529210
H      5.672562   -3.855572    0.895557
H      7.686858   -2.730194   -0.024412
H      3.586543   -2.600261    1.272545
H      7.590901   -0.323271   -0.566961
H     -4.004508   -0.087743    2.224983
H     -6.444864   -0.006272    2.773736
H     -7.806945   -0.085156   -2.433202
H      2.451784   -0.891375   -0.979950
H      1.836235   -1.341910    0.605002
H     -9.921814    0.003675   -0.796910
H      1.389273    1.292618   -0.909902
H      0.765165    1.057734    0.771442
H     -0.696895    1.287109   -2.137947
H     -1.312588    1.505820   -0.415498
H     -0.045906   -1.207981    1.116975
H     -0.988923   -1.958503   -0.239544
H     -3.016917    0.464130   -2.243885
H     -2.020258   -1.011082   -1.849339
H     -1.727829    0.498639    1.432413
H     -2.377227   -1.164573    1.546491
H     -4.966113   -0.149005   -1.889020
H      3.424060    2.303595    0.100931
H      3.515726    1.190020   -1.325422
H      3.122773    0.542970    1.657170
H      6.185028    2.669994    1.707021
H     -8.948709    0.037836    1.590020
H      6.810146    3.766858   -1.709629
