77

C      4.468020    0.499369    0.312127
C      4.117279    1.015994   -1.037261
C     -2.009392    1.532962    2.228249
C     -2.018742    0.942235    0.886688
C      4.933907   -0.921586    0.358878
C     -3.386665    1.850984    2.708786
C     -0.354562   -1.485067    1.339528
C     -1.149030    2.775825   -1.106120
C     -1.167782   -2.469827    0.511396
C     -2.145975    2.498922   -2.176446
C      2.997845    0.346110   -1.743661
C      1.287341   -0.477016   -0.204731
C      0.905577    1.477626   -1.320910
C      0.036673   -0.391764    0.458632
C     -0.323125    1.609496   -0.702340
C     -0.769346    0.641508    0.220963
C      6.177400   -1.170024   -0.468400
C     -4.395805    0.788363    2.827231
C     -1.593876   -3.686348    1.269708
C     -1.469166    2.036807   -3.470834
C      7.328975   -0.366290   -0.035625
C     -4.815583    0.063786    1.644035
C     -2.435286   -3.464458    2.438834
C     -2.490922    1.771886   -4.484534
N      6.518520   -2.590123   -0.299189
N     -4.077024   -0.149070    3.931121
N     -2.357570   -4.503367    0.306964
N     -0.577853    3.085212   -3.962213
N      1.712829    0.435002   -1.072890
O      8.370873   -0.933392    0.439847
O      7.403698    1.017954   -0.094777
O     -5.160857    0.659749    0.591963
O     -4.850757   -1.318913    1.636679
O     -2.060385   -2.783979    3.420314
O     -3.703925   -4.011108    2.507229
O     -2.489404    2.400601   -5.564527
O     -3.476452    0.824870   -4.271881
H      5.254783    1.154189    0.736460
H      3.566412    0.645666    0.974874
H      5.017642    0.943385   -1.696345
H      3.880284    2.100943   -0.920648
H     -1.591197    0.860943    3.024304
H     -1.477050    2.525937    2.252533
H     -2.545859   -0.031621    0.957520
H     -2.632891    1.588961    0.250924
H      4.200864   -1.682004    0.093478
H      5.255873   -1.108405    1.424493
H     -3.347429    2.340401    3.747153
H     -3.785973    2.702583    2.086754
H      0.534312   -2.106048    1.671579
H     -1.001376   -1.217713    2.171713
H     -1.658165    3.269322   -0.228164
H     -0.468584    3.571787   -1.487436
H     -2.006821   -2.024573   -0.030439
H     -0.456102   -2.871124   -0.294366
H     -2.694003    3.444347   -2.440611
H     -2.901861    1.734677   -1.966087
H      3.206397   -0.740426   -1.896156
H      2.872809    0.830256   -2.727887
H      1.893850   -1.344155    0.030400
H      1.237169    2.251048   -2.036815
H      6.003925   -0.982514   -1.536484
H     -5.331145    1.297267    3.227323
H     -0.678968   -4.291707    1.510502
H     -0.863834    1.129045   -3.293075
H      6.380125   -2.883353    0.682298
H      7.508623   -2.733923   -0.617674
H     -4.870355   -0.834075    3.978487
H     -4.132403    0.407585    4.812532
H     -3.166539   -3.871286    0.027554
H     -1.753457   -4.550045   -0.561096
H     -1.036617    3.574573   -4.758554
H      0.302541    2.645941   -4.366874
H      8.248962    1.547463    0.073455
H     -5.356377   -1.777753    0.890896
H     -4.400811   -3.755423    3.198292
H     -4.186208    0.686903   -4.987645
