47

C      4.326124    0.752737   -0.480992
C      4.095745   -1.374068    0.620121
C     -4.784988   -0.464578   -0.474123
C      0.833602    4.131899    0.870133
C      1.373398   -0.970695   -0.952812
C      1.095319   -2.304952   -0.328179
C     -3.089267    1.238519   -0.483208
C     -2.521289   -0.872289    0.582537
C     -1.428228    3.032166    0.384001
C     -1.369719   -2.500739   -0.895303
C      1.705041    1.387492   -0.577549
C      3.488578   -0.139642    0.012310
C     -3.423091    0.022932   -0.138047
C     -0.058818    3.076727    0.358694
C      1.995878    0.035091    0.008229
C     -0.349047   -2.593170   -0.121462
C     -1.805950    1.829620   -0.220464
C     -2.540892   -2.258757    0.053480
C      0.366262    1.899607   -0.261913
C     -0.870316   -3.056557    1.203548
O     -0.260498   -3.295805    2.267384
O     -0.687176    1.236948   -0.564104
O     -2.274838   -3.205605    1.092953
H      5.427396    0.576362   -0.435327
H      4.088722    1.683895   -0.965269
H      5.164525   -1.145614    0.804009
H      3.994806   -2.252536   -0.017050
H      3.672017   -1.511084    1.659481
H     -5.472536    0.391945   -0.628219
H     -5.209375   -1.024585    0.408826
H     -4.765596   -1.178239   -1.303536
H      1.838838    4.087104    0.416628
H      0.441395    5.155569    0.630160
H      0.962277    4.043200    1.987175
H      0.436243   -0.599198   -1.403558
H      2.100479   -1.077277   -1.794153
H      1.689755   -2.294954    0.607589
H      1.550860   -3.105165   -0.938636
H     -3.828839    1.898763   -1.009313
H     -2.950278   -0.945182    1.631438
H     -1.504104   -0.472238    0.761274
H     -2.121342    3.746959    0.767146
H     -1.678385   -2.540085   -1.937875
H      1.833621    1.371656   -1.678102
H      2.432751    2.154091   -0.205481
H      1.593412   -0.064315    1.034245
H     -3.512473   -2.505955   -0.346689
