49

C     -3.806260   -0.978767    0.481837
C      3.882664    0.294272    0.964509
C     -3.894743    0.407486    1.045858
C      3.430856   -1.104801    1.208986
C     -2.889808   -0.960410   -0.722341
C      2.883556    1.191812    0.349105
C     -2.713895    1.275874    0.675487
C      2.678320   -1.576537   -0.018870
C     -0.240979    0.923291   -1.696154
C      0.635904   -1.358474   -1.113355
C     -0.303315    1.279854    0.713404
C     -0.588310   -0.532098   -1.413618
C      0.546355    1.414330   -0.496684
C     -1.494147   -0.605458   -0.210555
C      1.809212    0.555667   -0.439367
N     -1.508942    0.565045    0.557731
N      1.448547   -0.768337   -0.050920
Cl    -0.370574   -0.004919    0.006458
O      1.193605   -0.653267   -0.187522
O     -0.577670    1.390520   -0.961451
O     -1.471682   -1.195742   -0.473580
O     -0.598972    0.390584    1.641232
H     -3.377844   -1.678531    1.227009
H     -4.809937   -1.354474    0.195790
H      4.842403    0.230490    0.372307
H      4.214316    0.716199    1.956691
H     -4.827567    0.878961    0.636720
H     -4.039121    0.351673    2.147904
H      2.699815   -1.154252    2.053610
H      4.292979   -1.769628    1.365967
H     -2.853078   -2.025940   -1.092276
H     -3.232482   -0.282349   -1.505752
H      2.427616    1.856763    1.137144
H      3.438595    1.917308   -0.316899
H     -2.998806    1.886912   -0.217404
H     -2.613988    2.025486    1.509832
H      2.444222   -2.644129   -0.004493
H      3.304847   -1.344660   -0.923938
H     -1.175064    1.498335   -1.733856
H      0.399023    1.024099   -2.573229
H      0.270196   -2.328441   -0.700343
H      1.242236   -1.532545   -2.009469
H     -0.563699    2.325161    1.055892
H      0.244660    0.845847    1.601088
H     -1.062379   -0.959258   -2.308739
H      0.904613    2.466713   -0.649415
H     -1.205474   -1.470029    0.453451
H      2.158904    0.497539   -1.512645
H      1.825292    0.072824   -0.025138
