49

C      4.134784   -0.584462    0.559927
C     -3.597370    1.418685    0.681975
C      4.003243    0.867946    0.211980
C     -4.135859   -0.014663    0.632987
C      2.908311   -1.312588    0.112177
C     -2.564999    1.522196   -0.410456
C      2.616097    1.263337   -0.176741
C     -3.049847   -0.938898    1.079375
C      0.227639   -0.780272   -1.216820
C     -0.754081   -1.409978    0.965875
C      0.308524    1.202401    0.310247
C      0.450287   -1.422318    0.119824
C     -0.353920    0.604540   -0.892849
C      1.658178   -0.744198    0.750300
C     -1.785257    0.246175   -0.468305
N      1.594610    0.664061    0.609434
N     -1.709893   -0.405488    0.785851
Cl    -0.349568    0.006488    0.005661
O      1.241679    0.472841   -0.313275
O     -0.835530   -1.296623   -0.974097
O     -1.344068    1.341373   -0.391888
O     -0.624901   -0.385700    1.614506
H      4.397408   -0.757381    1.612910
H      4.993201   -0.992805   -0.045546
H     -4.423046    2.153300    0.548519
H     -3.077470    1.521209    1.645774
H      4.378017    1.485896    1.074441
H      4.683417    1.160973   -0.640638
H     -5.047589   -0.102151    1.237865
H     -4.377285   -0.186583   -0.456154
H      2.875940   -1.283620   -0.990444
H      3.000998   -2.402531    0.379688
H     -3.127987    1.632879   -1.379994
H     -1.948610    2.420742   -0.310149
H      2.513831    1.119740   -1.268939
H      2.543130    2.379999   -0.023279
H     -3.146483   -1.274449    2.111843
H     -3.122281   -1.866691    0.439165
H      1.099218   -0.729970   -1.850427
H     -0.540794   -1.401866   -1.754937
H     -1.262251   -2.414780    0.864383
H     -0.418952   -1.399142    2.046047
H     -0.312529    1.119340    1.241139
H      0.434097    2.304246    0.155910
H      0.785490   -2.480355   -0.084298
H     -0.349462    1.264361   -1.765047
H      1.733417   -1.007126    1.845786
H     -2.233872   -0.439715   -1.216184
H      1.912388   -0.138379    0.059094
