47

C      4.142200    1.588345    0.525833
C      3.596124   -0.616475    1.297445
C     -4.477521   -0.455397    1.843281
C      1.347954   -3.731588   -1.486470
C      1.562622    1.982745   -0.725665
C      0.657565    2.923487    0.063801
C     -2.375223   -1.522293    1.210657
C     -3.318800    0.127892   -0.329093
C     -0.711318   -3.010742   -0.104510
C     -1.536565    1.738865    0.502078
C      1.787021   -0.456832   -1.041430
C      3.226728    0.666534    0.553243
C     -3.306739   -0.643775    0.904008
C      0.495596   -2.750316   -0.767798
C      1.870863    0.704805   -0.051736
C     -0.766472    2.551293   -0.115633
C     -1.182614   -1.826307    0.429682
C     -2.333830    1.123406   -0.635671
C      0.699614   -1.406026   -0.600665
C     -1.602135    3.083590   -1.253565
O     -1.270733    3.926156   -2.124021
O     -0.297724   -0.960679    0.088027
O     -2.844867    2.414578   -1.107520
H      4.105791    2.565283    0.064729
H      5.112549    1.396929    1.029566
H      2.682753   -0.979351    1.773513
H      4.338240   -0.385394    2.084828
H      4.039647   -1.345132    0.571958
H     -5.406386   -0.493248    1.237498
H     -4.381223    0.511231    2.380987
H     -4.515327   -1.294500    2.576749
H      2.327689   -3.813320   -0.983811
H      1.479586   -3.405921   -2.540825
H      0.855034   -4.721869   -1.437871
H      1.101518    1.743522   -1.717296
H      2.482082    2.524332   -0.975699
H      0.875534    3.937220   -0.352128
H      1.036393    2.972174    1.089400
H     -2.545292   -2.095148    2.148891
H     -4.349859    0.584375   -0.515833
H     -3.325159   -0.675810   -1.161328
H     -1.209825   -3.984621   -0.002022
H     -1.811088    1.365997    1.497972
H      2.729934   -1.028046   -1.054688
H      1.581658   -0.120321   -2.070204
H      1.102938    0.506277    0.740379
H     -1.668934    0.784075   -1.459045
