50

C      0.328900    2.656866   -0.530675
C      4.593093    0.025360   -0.454147
C     -3.970229   -1.812802   -0.156522
C     -4.266698    0.651832   -0.358184
C      0.280576   -0.987322    0.286424
C     -1.075578   -1.264647    0.205832
C     -1.458326    0.980992   -0.362265
C      2.246546    0.483905    0.085623
C     -0.092668    1.253879   -0.282191
C      3.144037   -0.491597   -0.644940
C      0.823318    0.266079    0.050048
C     -1.965146   -0.277452   -0.120379
N      3.154407   -1.784117    0.026542
N     -3.362145   -0.501692   -0.209384
C     -0.408977   -0.195261   -0.653728
C      0.373608    0.221035    0.563190
C     -1.785611   -0.599165   -0.339221
C      1.799982    0.296338    0.178164
O     -0.394688    0.741243   -1.655367
O     -0.099111    1.382815    1.137398
O     -2.727141   -0.069899   -0.986719
O     -2.087702   -1.545762    0.648558
O      2.423255    1.359142    0.397632
O      2.399813   -0.786432   -0.403286
H      1.001670    2.786861   -1.365915
H      0.715492    3.047494    0.445802
H     -0.573038    3.295032   -0.717610
H      5.264509   -0.791900   -0.129190
H      4.619909    0.766676    0.360184
H      4.991132    0.379384   -1.419582
H     -3.432030   -2.555902    0.430100
H     -4.990818   -1.736833    0.310613
H     -4.177467   -2.124959   -1.222507
H     -5.316722    0.351039   -0.184849
H     -3.967937    1.375689    0.427119
H     -4.089316    1.119678   -1.339193
H      0.887841   -1.815794    0.538977
H     -1.437287   -2.281042    0.405290
H     -2.181232    1.766924   -0.615739
H      2.656054    0.745126    1.055667
H      2.398144    1.460225   -0.530685
H      2.964084   -0.618393   -1.694334
H      3.087264   -2.602563   -0.539299
H      3.199659   -1.766027    1.034992
H      0.109508   -1.115819   -1.053840
H      0.286312   -0.608362    1.300476
H     -0.134406    1.635139   -1.381103
H      0.011933    1.332473    2.123329
H     -2.964944   -1.389098    1.155676
H      3.198169   -0.658389   -1.031159
