41

C     -2.083081   -1.971922   -1.411687
C     -1.522731   -2.579874   -0.143167
C     -1.663459   -0.500122   -1.528309
C      2.384463    1.668039   -1.216985
C      3.496769    0.853792   -1.269263
C     -0.112298   -2.117421    0.078153
C     -0.077576   -0.399594    1.895718
C     -0.544919    0.909422    2.366149
C      0.010711    2.043472   -0.599686
C      2.266700   -0.901074   -0.225683
C     -1.983061    2.830744    1.878596
C      1.191019    1.178957   -0.654994
C      3.460484   -0.442154   -0.776586
C     -1.338113   -0.032106   -0.155931
C      1.153315   -0.083502   -0.174303
C     -1.218327    1.462120   -0.022483
C     -0.087294   -0.622427    0.421222
N     -1.240939    1.722612    1.403658
O     -2.601677    3.560565    1.068302
O      4.552771   -1.280644   -0.813488
H     -1.781761   -2.546837   -2.289794
H     -3.196218   -2.026405   -1.329697
H     -1.472986   -3.691324   -0.289719
H     -2.141192   -2.364901    0.735805
H     -2.534290    0.055703   -1.897979
H     -0.853462   -0.380032   -2.257156
H      2.448726    2.664009   -1.607201
H      4.443049    1.174653   -1.690031
H      0.406517   -2.705945    0.837656
H      0.438668   -2.281940   -0.890348
H      0.962322   -0.610310    2.268321
H     -0.710120   -1.216367    2.353215
H     -1.214775    0.808648    3.257940
H      0.321348    1.535069    2.732276
H      0.303106    2.927461    0.044527
H     -0.168706    2.532508   -1.604850
H      2.236671   -1.911822    0.159126
H     -2.044080    3.083937    2.925905
H     -2.177916   -0.337538    0.518176
H     -2.095503    1.901000   -0.539838
H      4.787843   -1.908449   -1.555566
