39

C     -3.319183    1.457695    0.208917
C      3.002443    1.661053   -0.282514
C     -0.957240   -2.403468   -0.844429
C     -1.699721   -1.379150    1.323421
C      2.748967   -0.746710   -0.010290
C      1.552942   -1.676822   -0.083535
C     -1.007296    1.726732    0.849800
C      0.439546    1.736821    0.498909
C     -0.210158    0.480698   -1.488252
C     -1.900033    1.077333    0.122605
C      2.194056    0.470039   -0.764511
C     -1.471692   -0.022144   -0.769394
C      0.461597   -0.753064    0.398868
C     -0.909433   -1.196132    0.028141
C      0.766810    0.521313   -0.337689
H     -3.943304    0.646877    0.665673
H     -3.717338    1.580216   -0.836208
H     -3.500654    2.405537    0.722061
H      2.944984    1.666698    0.818431
H      2.662453    2.585276   -0.761849
H      4.071211    1.447929   -0.534658
H     -0.323354   -3.244608   -0.459734
H     -0.632129   -2.098408   -1.864934
H     -2.019335   -2.713832   -0.950087
H     -1.083252   -1.882268    2.096750
H     -1.976440   -0.392477    1.739647
H     -2.592768   -2.022579    1.165726
H      3.641178   -1.156562   -0.508459
H      2.902559   -0.486048    1.040744
H      1.678784   -2.571193    0.552824
H      1.429323   -1.935425   -1.163032
H     -1.318726    2.286319    1.749605
H      0.994550    1.645728    1.459687
H      0.694426    2.654810   -0.031982
H      0.086852   -0.199708   -2.294315
H     -0.404539    1.518483   -1.829380
H      2.336105    0.271650   -1.836924
H     -2.234522   -0.340723   -1.478139
H      0.612328   -0.619884    1.491706
