46

C      5.028779    1.785717    0.734879
C      3.628294    1.800545    0.162419
C      2.938024    0.453177    0.402302
C     -2.576891   -2.174867    0.852512
C     -2.885196    1.745584   -0.666289
C      1.533691    0.475595   -0.174707
C     -2.668309   -0.760663    0.449870
C     -1.253933   -2.838503    0.735922
C     -1.504412    1.196075   -0.305004
C      1.631972   -1.883123   -0.694402
C      0.672469   -3.052403   -0.742693
C     -2.892070    3.271293   -0.492016
C     -1.568283   -0.283867   -0.502489
C      0.802682   -0.791424    0.017675
C     -0.670396   -2.420059   -0.621001
N     -0.418966   -1.011461   -0.504625
O     -2.607466    3.640679    0.800463
H      4.958900    2.241663    1.750739
H      5.315824    0.724381    0.893695
H      5.747027    2.322193    0.083657
H      3.030983    2.624225    0.603406
H      3.723089    2.016023   -0.917655
H      2.928754    0.290830    1.500535
H      3.578500   -0.313826   -0.026679
H     -2.898072   -2.269165    1.932272
H     -3.318669   -2.822959    0.307229
H     -3.127266    1.554432   -1.719786
H     -3.667641    1.392795    0.049369
H      1.013949    1.270906    0.437880
H      1.609067    0.757915   -1.243688
H     -3.692194   -0.627156   -0.013203
H     -2.697351   -0.101902    1.354923
H     -1.393817   -3.939921    0.677958
H     -0.549001   -2.530002    1.523575
H     -0.819170    1.698082   -1.029741
H     -1.346916    1.511329    0.742009
H      1.847355   -1.570906   -1.731770
H      2.490666   -2.189425   -0.110865
H      0.889087   -3.758053    0.111772
H      0.790247   -3.599523   -1.705195
H     -3.888133    3.602447   -0.832731
H     -2.163147    3.651591   -1.241485
H     -2.053216   -0.405438   -1.526636
H      0.886077   -1.072272    1.109426
H     -1.363875   -2.622183   -1.440464
H     -3.021047    3.011626    1.420835
