41

C      0.975052    2.386309    0.010849
C      4.266937    2.051499    0.876772
C     -5.859267    0.988743    0.441224
C     -4.922048    1.754437   -0.201476
C     -5.543524   -0.292842    0.848912
C     -3.677994    1.208370   -0.421102
C     -4.285041   -0.827167    0.619420
C     -1.663681   -1.856468    0.402578
C      4.404322   -1.117155   -0.579637
C      1.343327    0.956921   -0.138620
C     -3.347680   -0.067212   -0.021020
C      2.984851   -0.727294   -0.418088
C     -0.416124   -2.326920   -0.260931
C     -2.009658   -0.561668   -0.294232
C      0.686350   -1.350792   -0.273139
C      1.993219   -1.735256   -0.416229
C      2.662474    0.590101   -0.281472
C      0.333112   -0.008358   -0.132138
O      5.244079   -0.022946   -0.568716
O     -0.233153   -3.425207   -0.783806
O      2.386522   -3.020905   -0.554766
O      3.621005    1.561154   -0.282655
O     -0.994487    0.366964    0.011950
H      0.855607    2.594707    1.113960
H      1.742850    3.067987   -0.357979
H     -0.017543    2.583314   -0.443950
H      5.234779    2.489141    0.556941
H      4.362377    1.306646    1.672878
H      3.667468    2.897275    1.306167
H     -6.866707    1.384620    0.637848
H     -5.129135    2.756733   -0.534433
H     -6.282670   -0.893468    1.354471
H     -2.954478    1.846192   -0.936191
H     -4.115889   -1.833779    0.967978
H     -1.429660   -1.722886    1.478202
H     -2.408811   -2.657528    0.237509
H      4.530156   -1.734181   -1.491457
H      4.709803   -1.768986    0.271241
H     -1.900756   -0.759427   -1.402534
H      6.160767   -0.222308   -0.239313
H      1.893248   -3.858359   -0.572966
