37

C      2.549538    2.273176    0.448385
C      4.173730   -0.928672    1.092180
C     -1.438947   -0.244829   -2.997447
C     -1.481755   -1.962843   -1.162877
C     -4.238320    0.594121    2.405996
C      0.475315   -0.096395    0.377283
C      2.503183    1.086891   -0.439061
C      2.691782   -0.716534    1.154280
C     -0.391133    0.382069   -0.760624
C     -1.849622    0.543265   -0.586541
C     -2.513563    0.210711    0.692837
C     -1.316858   -0.510248   -1.487082
C      1.927309   -0.190808   -0.009332
Br     2.103032   -1.507810   -1.428989
O      2.962923    1.190713   -1.561871
O      2.130194   -0.991955    2.199745
O     -2.138149   -0.739160    1.438572
O     -3.622493    0.929210    1.184933
H      3.531296    2.817231    0.368282
H      1.781298    3.018378    0.150173
H      2.463822    1.983281    1.512673
H      4.647370    0.055665    1.273756
H      4.399280   -1.323822    0.066436
H      4.520101   -1.661864    1.820123
H     -1.058634   -1.112671   -3.566209
H     -0.836403    0.646516   -3.281583
H     -2.510736   -0.118814   -3.222461
H     -0.785729   -2.562238   -1.814804
H     -2.514994   -2.271321   -1.460998
H     -1.305289   -2.250985   -0.132079
H     -5.334688    0.443225    2.304235
H     -3.832566   -0.402833    2.731043
H     -3.983475    1.295872    3.224153
H      0.152100   -1.104652    0.705464
H      0.347147    0.616188    1.216776
H      0.126908    1.190599   -1.357648
H     -2.332974    1.421344   -1.097718
