35

C     -2.657794    2.238051    0.461516
C      1.256008   -2.072842   -0.241430
C      0.919996   -1.778660    2.236542
C      4.416549    2.051439   -0.893243
C     -0.479821    0.335124   -0.740580
C     -2.923347    0.929058   -0.186113
C      0.109261    0.092256    0.618404
C     -1.945369    0.082285   -0.722051
C      1.550523    0.269589    0.885856
C      2.489660    0.747753   -0.146424
C     -3.952681   -0.826754   -0.986638
C      0.994301   -1.103350    0.858211
N     -4.120269    0.343668   -0.366348
N     -2.630207   -0.963885   -1.191694
O      2.336053    0.354425   -1.318367
O     -4.962963   -1.735010   -1.352275
O      3.529405    1.609478    0.124854
H     -3.606998    2.809886    0.535982
H     -2.268314    2.126610    1.491421
H     -1.974697    2.869274   -0.153269
H      2.191765   -1.914412   -0.801753
H      1.322044   -3.145010    0.111846
H      0.435475   -2.110899   -1.007680
H      0.151539   -1.240320    2.825117
H      1.939809   -1.634662    2.682286
H      0.702911   -2.859182    2.139452
H      5.414409    1.620063   -0.669014
H      4.464777    3.154479   -0.885454
H      4.072316    1.632607   -1.849317
H     -0.008593   -0.204824   -1.560629
H     -0.372539    1.428882   -0.983066
H     -0.598946    0.287416    1.449691
H      1.796775    0.710574    1.901815
H     -2.225829   -1.797164   -1.662253
H     -5.365210   -2.305945   -0.605395
