42

C     -6.960600    2.063491   -1.013298
C     -5.745763    2.390568   -0.431176
C     -7.058360    0.899916   -1.740763
C     -0.031597   -1.054158    3.050553
C      4.199731   -1.029234    0.527916
C      1.313342   -1.080044    2.674717
C      3.053648   -1.003823    0.907881
C     -4.683313    1.521733   -0.613199
C     -5.985263    0.029968   -1.920376
C     -0.971119   -0.921864    2.052721
C      5.579912   -1.065328    0.048812
C      0.700154   -0.847770    0.410281
C     -2.488376    0.082928   -2.325130
C      1.688616   -0.977130    1.351049
C     -4.773741    0.356360   -1.339711
C     -0.646324   -0.815364    0.716224
C     -3.598497   -0.501272   -1.474319
C     -1.644469   -0.679815   -0.334251
C      7.762250    0.086067    0.449477
N      8.264133    1.254693    0.305748
N     -2.924606   -0.645679   -0.192593
N      6.402612   -0.063174    0.742299
O      8.601807   -1.025472    0.307028
O      5.815284    0.712554    1.671588
O     -1.363302   -0.561604   -1.692267
H     -7.808244    2.722634   -0.887813
H     -5.617737    3.289705    0.148215
H     -8.038191    0.682984   -2.182174
H     -0.282917   -1.137927    4.098021
H      2.088133   -1.181455    3.417800
H     -3.743261    1.798236   -0.147828
H     -6.121820   -0.858108   -2.498115
H     -2.032710   -0.897949    2.308098
H      6.011137   -2.069054    0.245446
H      5.649521   -0.781098   -1.032590
H      0.980110   -0.767963   -0.624328
H     -2.481731    1.172999   -2.131826
H     -2.592108   -0.190428   -3.372454
H     -3.852293   -1.540524   -1.806823
H      7.653986    2.089529    0.408234
H      9.380218   -1.014667   -0.343299
H      6.301748    1.556540    1.839799
