43

C     -5.165464    1.000492   -2.875915
C      6.958281   -0.249993    0.323771
C     -3.339636    0.406697    3.496677
C      6.427045    0.920091   -0.146217
C      6.066181   -1.297461    0.539057
C     -2.445552   -0.606836    3.241882
C     -3.583433    1.388260    2.535760
C      5.083143    1.081152   -0.401809
C      4.721394   -1.142542    0.285381
C     -1.789035   -0.635190    2.008791
C     -2.915389    1.325252    1.330669
C      2.736813    0.186250   -0.455879
C      4.192053    0.035822   -0.187085
C     -2.014530    0.319893    1.050523
C     -1.302515    0.252208   -0.245012
C     -2.004835   -0.543666   -1.299163
C     -3.418268   -0.053575   -1.502196
C      0.722463   -1.145606   -0.314421
N      0.071677   -0.093030   -0.164927
O     -1.360505   -0.263861   -2.514719
O     -4.221661   -0.201072   -0.550407
O      0.126183   -2.379190   -0.639192
O     -3.865778    0.535808   -2.654078
O      2.117913   -1.040192   -0.139899
H     -5.229063    2.063710   -3.143467
H     -5.587811    0.434387   -3.745668
H     -5.849666    0.809443   -2.032170
H      8.012001   -0.363725    0.519988
H     -3.831630    0.401480    4.459429
H      7.073161    1.772695   -0.333478
H      6.500410   -2.218844    0.911538
H     -2.256840   -1.370797    3.991793
H     -4.291986    2.148538    2.800620
H      4.657807    2.002753   -0.773026
H      4.049622   -1.985358    0.465525
H     -1.097854   -1.464780    1.890924
H     -3.135486    2.117524    0.600321
H      2.362674    1.025833    0.160848
H      2.622357    0.460187   -1.531411
H     -1.327527    1.335179   -0.617961
H     -2.017326   -1.613793   -1.160324
H     -1.968124   -0.535530   -3.257700
H     -0.481266   -2.818615    0.072627
