45

C     -1.577441    2.744437   -1.197688
C     -1.701934   -2.343323    1.316030
C     -2.379178   -0.347424    2.530985
C      5.454048    0.302531   -1.856111
C      6.265272    0.034996   -0.778092
C      4.081157    0.289984   -1.731213
C      5.679248   -0.247237    0.435094
C     -3.637266    1.545506   -0.843449
C     -3.799528    0.663655    0.379899
C     -2.532334   -0.813854   -1.203188
C      2.200215   -0.393001    1.229127
C     -2.183485    1.579184   -1.159523
C     -3.074568   -0.635205    0.208291
C      3.454206    0.010661   -0.528036
C     -1.510024    0.284590   -1.412443
C      2.138524   -0.068243   -0.128105
C      4.294014   -0.259484    0.559379
C     -0.391244    0.042804   -0.459573
C      0.970155    0.146901   -0.967498
C     -1.945643   -0.837438    1.165138
N      3.484507   -0.497817    1.600506
N     -0.705106   -0.240541    0.743464
O      1.159570    0.433084   -2.176116
H     -2.110361    3.653495   -1.006912
H     -0.527803    2.788361   -1.424297
H     -0.889013   -2.696164    0.670534
H     -1.417803   -2.584052    2.369214
H     -2.658280   -2.891438    1.127796
H     -1.916029    0.653596    2.760766
H     -3.483546   -0.301493    2.630325
H     -2.024480   -1.017212    3.345456
H      5.892295    0.524476   -2.808991
H      7.347538    0.040619   -0.858638
H      3.428702    0.499780   -2.575711
H      6.317100   -0.457334    1.281584
H     -4.226788    1.148919   -1.709206
H     -4.020359    2.558296   -0.540532
H     -4.897126    0.504888    0.589306
H     -3.416376    1.269156    1.243359
H     -1.966082   -1.779426   -1.197039
H     -3.333335   -0.792541   -1.949344
H      1.338798   -0.536540    1.875871
H     -3.783687   -1.502020    0.356880
H     -1.196189    0.252015   -2.464549
H      3.799663   -0.730147    2.557252
