41

C      4.642450   -0.657258   -0.809765
C      4.884981    0.335635    1.345980
C     -4.290539   -1.222494    0.536411
C     -4.536223    0.842661   -0.554512
C      2.648984    0.023980    0.389722
C      5.999094   -0.787383   -0.912666
C      6.268129    0.198866    1.232297
C     -5.536253   -1.627050    0.104568
C     -5.798948    0.434553   -0.993426
C      2.033079    0.539448    1.413510
C     -2.408312    0.436370    0.718369
C      4.080180   -0.088102    0.335244
C     -3.761225    0.011329    0.221724
C      6.811965   -0.357600    0.112053
C     -6.317476   -0.800399   -0.673085
C     -1.285044   -0.001989   -0.160175
C      0.559749    0.621812    1.398867
C     -1.377402    0.540719   -1.552301
N     -0.039238    0.199771    0.426421
O      8.175557   -0.499211   -0.014527
O     -7.583769   -1.201656   -1.117000
O     -0.054792    1.178990    2.502059
O     -2.409884    0.336751   -2.233271
O     -0.362434    1.271183   -2.140529
H      3.991208   -0.986848   -1.599196
H      4.505534    0.779842    2.247207
H     -3.679149   -1.883004    1.151372
H     -4.167798    1.823456   -0.819656
H      2.029765   -0.329264   -0.446856
H      6.395021   -1.239488   -1.828758
H      6.895043    0.530231    2.022387
H     -5.950194   -2.602297    0.355524
H     -6.403807    1.097254   -1.606151
H      2.556986    0.902165    2.267802
H     -2.368332    1.567726    0.736928
H     -2.257300    0.081204    1.735326
H     -1.417667   -1.134819   -0.265813
H      8.828510   -0.208352    0.692269
H     -8.401142   -0.992178   -0.525836
H     -0.819293    1.811653    2.432241
H     -0.080015    1.053792   -3.103779
