43

C      3.028423   -2.963901   -2.315305
C     -6.542482   -0.240322   -0.255646
C      3.389385   -0.013723    3.678359
C     -5.899502    0.967588   -0.426745
C     -5.776840   -1.365188   -0.072264
C      3.986426   -0.452309    2.517923
C      2.268606    0.779087    3.561536
C     -4.530662    1.013623   -0.409573
C     -4.396527   -1.316065   -0.055359
C      3.471715   -0.103992    1.276689
C      1.763632    1.120714    2.322846
C     -2.282807   -0.014407   -0.214752
C     -3.753301   -0.109793   -0.226208
C      2.356434    0.685054    1.140988
C      1.752278    1.107575   -0.122481
C      2.416721    0.649177   -1.360948
C      2.131388   -0.761060   -1.714482
C     -0.575769    1.715905   -0.448309
N      0.303316    0.842471   -0.131649
O      3.758570    0.936412   -1.334242
O      0.999282   -1.248226   -1.799249
O     -0.132054    2.982758   -0.802416
O      3.216679   -1.602233   -1.970765
O     -1.897886    1.329022   -0.412708
H      3.628232   -3.146654   -3.231293
H      1.978121   -3.180531   -2.572948
H      3.397095   -3.649967   -1.525289
H     -7.633077   -0.263008   -0.271439
H      3.809657   -0.298825    4.639358
H     -6.500563    1.877948   -0.574820
H     -6.308946   -2.308595    0.060845
H      4.880219   -1.084780    2.594586
H      1.796938    1.125318    4.470289
H     -4.075876    2.007609   -0.551675
H     -3.840188   -2.250848    0.095627
H      3.971258   -0.477697    0.421843
H      0.869388    1.753321    2.234425
H     -1.900480   -0.593502   -1.080823
H     -1.825667   -0.456082    0.691697
H      1.811596    2.239402   -0.126584
H      1.987790    1.255180   -2.213008
H      4.293295    0.431729   -1.968271
H      0.606183    3.081812   -1.517760
