66

C      4.646443    0.014779   -2.357299
C     -4.528186   -1.511429    1.955683
C      3.178077    3.024165    1.976867
C     -3.010709    3.694915    0.739079
C      2.979498   -1.213692    0.386751
C     -3.079055   -0.455040   -1.054088
C      3.025174   -2.927289   -1.695406
C     -3.237271   -3.123134   -0.838209
C      2.543981    1.434194   -0.700640
C     -2.479155    0.604789    1.545622
C      3.426303   -0.417721   -2.158071
C     -3.406248   -1.728786    1.346844
C      2.045833    2.064763    1.706699
C     -1.953066    2.745613    0.245355
C      2.875869   -1.762488   -2.583392
C     -3.036666   -2.958131    0.605264
C      2.243525    0.202697   -1.501654
C     -2.229825   -0.839738    1.233715
C      1.804752    1.423922    0.596077
C     -1.759458    1.499976    0.590465
C      1.789076   -2.083822   -1.533619
C     -1.955388   -2.475097   -0.410540
C      0.573957   -0.685256    0.164263
C     -0.625217   -0.351454   -0.605617
C      1.068017    1.696455    2.720061
C     -1.004008    3.146471   -0.782957
C      1.853828   -0.923343   -0.570756
C     -1.929893   -0.967858   -0.236424
C      0.570631    0.635320    0.795856
C     -0.556788    1.041104   -0.152053
O      1.013545    2.143493    3.924439
O     -0.916542    4.296420   -1.338580
O      0.238103    0.788824    2.119260
O     -0.223670    2.044823   -1.035763
H      5.377056   -0.596444   -2.866346
H      4.928079    0.994362   -2.011241
H     -5.311569   -2.258137    1.960600
H     -4.710522   -0.583299    2.474866
H      2.805496    4.073720    1.953620
H      3.908001    2.936015    1.145357
H      3.711106    2.770596    2.907402
H     -3.814302    3.814990   -0.019478
H     -3.422281    3.338643    1.707319
H     -2.584831    4.703312    0.937209
H      3.979040   -1.073817   -0.098530
H      2.987961   -0.623787    1.299463
H      2.848459   -2.279912    0.725642
H     -3.075192    0.600937   -1.293573
H     -3.020231   -0.990836   -2.036712
H     -4.019523   -0.679714   -0.515260
H      2.851414   -3.915040   -2.215466
H      3.787617   -3.006239   -0.922732
H     -3.107893   -4.157143   -1.218875
H     -4.050596   -2.585018   -1.321299
H      3.618858    1.531170   -0.578569
H      2.176243    2.312598   -1.268026
H     -3.551122    0.791779    1.570593
H     -2.063926    0.817422    2.550195
H      2.631615   -1.871684   -3.637263
H     -2.716184   -3.823963    1.239375
H      1.501447    0.350107   -2.310961
H     -1.447634   -1.317100    1.865815
H      0.823976   -2.422859   -1.926075
H     -1.025819   -3.044348   -0.429778
H      0.474725   -1.479494    0.947271
H     -0.434935   -0.405260   -1.711777
