63

C     -3.390380    3.602741    1.585614
C     -5.971403    0.645923   -0.835883
C     -3.714002    2.144562    1.202580
C     -4.982502   -0.416555   -1.100021
C      7.189301    3.433194   -0.132586
C      7.383411    2.490734    0.838606
C      6.052431    3.351487   -0.899798
C      6.465622    1.487934    1.045076
C      5.128402    2.328468   -0.682145
C      1.834873   -3.495574    0.300055
C      2.777126   -2.482985    0.306124
C     -1.342047   -6.316045    0.259293
C     -2.789255    1.777469    0.106984
C     -3.582074   -0.045697   -1.403654
C     -2.354371   -5.417595   -0.002619
C     -0.353562    0.713824   -1.002955
C     -1.337864   -1.511672   -0.355573
C      2.168351    0.979195   -0.682885
C      5.295700    1.373019    0.283788
C      0.859008    0.487651   -0.162962
C     -1.464199   -0.056717   -0.283951
C      0.480670   -3.214111    0.102328
C      0.090217   -1.907684   -0.086909
C      2.383028   -1.157632    0.113474
C      1.044313   -0.958689   -0.069760
C     -0.505667   -4.291822    0.106503
C      4.395790    0.285303    0.514310
N     -0.222032   -5.588168    0.319053
N     -2.774512    0.534882   -0.489093
N      3.101448    0.086873    0.002187
O      4.841287   -0.637623    1.301784
O     -1.795273   -4.239236   -0.081432
H     -3.734997    3.791486    2.630123
H     -3.808973    4.325128    0.884945
H     -2.290393    3.677910    1.579719
H     -6.360890    0.595789    0.201051
H     -5.595427    1.689188   -0.993698
H     -6.889913    0.516744   -1.493128
H     -3.357795    1.578630    2.136780
H     -4.756310    1.975340    1.152410
H     -5.412015   -1.060084   -1.942558
H     -4.994125   -1.142368   -0.213523
H      7.887865    4.240431   -0.325732
H      8.267701    2.538339    1.451345
H      5.877873    4.082531   -1.672000
H      6.659943    0.753594    1.835920
H      4.290118    2.336085   -1.347591
H      2.138324   -4.517608    0.449769
H      3.837494   -2.654418    0.454765
H     -1.505783   -7.364127    0.377257
H     -2.857965    2.573249   -0.740579
H     -1.741377    2.063964    0.517216
H     -3.687176    0.634285   -2.374937
H     -3.137922   -0.995977   -1.876958
H     -3.416079   -5.660764   -0.119491
H     -0.152039    0.240611   -2.000929
H     -0.626296    1.751381   -1.183367
H     -1.558921   -1.967793   -1.346056
H     -2.010373   -1.979605    0.398199
H      2.346467    2.038817   -0.350347
H      2.241941    0.841515   -1.764757
H      0.694479    0.902354    0.885417
H     -1.259275    0.209922    0.823847
