28

C      3.033199    1.636397    0.890211
C      2.816706    0.347225    1.336080
C      2.580621    2.085127   -0.327576
C      2.105270   -0.517302    0.495345
C      1.879743    1.187803   -1.124477
C     -3.057065   -1.260493    0.691060
C     -2.235205   -1.716006   -0.239184
C     -1.634843    0.490888    0.167514
C      0.893294   -1.032873   -1.582568
C      1.641241   -0.100956   -0.723061
C     -2.488205   -0.042072    1.328244
C     -1.054630   -0.851514   -0.306722
O     -3.437381    0.867741    1.720503
O     -0.439586   -0.765169   -1.502646
H      3.578887    2.344248    1.504451
H      3.190605    0.037249    2.300663
H      2.743918    3.087237   -0.684331
H      1.967963   -1.521093    0.898670
H      1.523703    1.561588   -2.096683
H     -4.004697   -1.699660    0.958128
H     -2.425998   -2.586957   -0.839083
H     -2.267850    0.852342   -0.658999
H     -0.862916    1.177391    0.502320
H      1.156916   -2.094103   -1.401397
H      1.215898   -0.817157   -2.642717
H     -1.783239   -0.330406    2.121495
H     -0.349717   -1.145979    0.491429
H     -4.286630    0.806502    1.257923
