40

C      3.778145    1.018336    0.832754
C      2.570541   -1.580908    0.857000
C     -2.626253    1.127887    1.320194
C     -2.228012    1.256716   -1.064705
C      0.378752   -0.828898   -1.499949
C     -1.593047   -2.094702    0.406495
C     -2.417330   -0.954631   -0.021279
C     -0.157121   -1.836464    0.671663
C      0.103787    1.879526    0.040704
C      2.377860    0.780466    0.401908
C      1.793777   -0.407122    0.402066
C      1.570943    1.903584   -0.053495
C     -0.435467    0.530720    0.454110
C     -1.892154    0.409028    0.174133
C      0.395368   -0.616843   -0.033943
O      2.111888    2.926180   -0.540684
H      4.479996    0.240517    0.462116
H      4.113533    1.965095    0.362319
H      3.860615    1.168060    1.926884
H      2.685884   -2.313192    0.043881
H      3.520352   -1.314105    1.361099
H      1.953626   -2.074794    1.664195
H     -1.955107    1.942459    1.717207
H     -2.837242    0.367712    2.078227
H     -3.574907    1.523159    0.928002
H     -3.265111    0.911934   -1.353871
H     -1.589431    1.024956   -1.912081
H     -2.336228    2.318622   -0.814496
H      1.253853   -1.501986   -1.745913
H     -0.499272   -1.316765   -1.913047
H      0.633337    0.130505   -2.039159
H     -1.638987   -2.919369   -0.368014
H     -2.014756   -2.598721    1.328192
H     -2.744141   -1.100961   -1.095919
H     -3.406053   -1.019731    0.529893
H      0.454382   -2.724156    0.445458
H     -0.031681   -1.629043    1.774950
H     -0.177215    2.659873    0.808526
H     -0.301643    2.247497   -0.911198
H     -0.315480    0.499558    1.580588
