21

C     -1.282407   -1.959991   -0.739661
C      2.553359    1.296369   -0.076786
C      2.252925    0.189785    0.656440
C      1.553641    1.803837   -0.900086
C      1.011266   -0.391576    0.577588
C      0.314341    1.223468   -0.978698
C     -1.327451   -0.533502   -0.313193
C      0.006480    0.099552   -0.235148
C     -1.970425   -0.432176    1.016523
O     -2.289583   -1.445064    1.609241
S     -2.290945    1.175680    1.778022
H     -0.876209   -2.124677   -1.742098
H     -2.310495   -2.363780   -0.705776
H     -0.679074   -2.553202   -0.027140
H      3.515233    1.793524   -0.052126
H      3.018922   -0.225337    1.307794
H      1.778804    2.690856   -1.494509
H      0.831902   -1.266123    1.181941
H     -0.452153    1.642082   -1.632901
H     -1.945347    0.045771   -1.028752
H     -1.412785    1.334502    2.854100
