35

C     -0.638891   -3.985484    0.672717
C     -1.537555   -2.862627    0.166885
C     -3.876272    2.856705   -0.543335
C     -2.585955    3.102062   -0.137267
C     -4.348746    1.558838   -0.589948
C     -1.798555    2.072867    0.196074
C     -3.523064    0.537641   -0.231757
C      3.115849    1.313517   -1.058360
C      3.663806   -0.441533    0.432443
C      1.811005    0.825008   -1.159311
C      2.367821   -0.920405    0.331015
C      4.025507    0.709983   -0.287039
C      1.432236   -0.297021   -0.453253
C     -2.196589    0.715613    0.179099
N      5.333494    1.196290   -0.187895
O      5.696717    2.290016   -0.920926
O      6.212456    0.661343    0.567125
O     -1.575597   -1.944284    1.258160
O      0.140524   -0.779033   -0.512081
P     -1.039254   -0.461718    0.670940
S     -0.121746    0.237051    2.047367
H     -0.100690   -4.452264   -0.155523
H      0.210593   -3.387864    1.240098
H     -1.046567   -4.610472    1.432092
H     -1.375671   -2.450937   -0.779823
H     -2.619748   -3.292843    0.215786
H     -4.498962    3.670898   -0.804064
H     -2.184245    4.136355   -0.093674
H     -5.369155    1.459364   -0.938467
H     -0.737788    2.186998    0.497784
H     -3.900948   -0.480311   -0.266820
H      3.401681    2.203424   -1.644616
H      4.432724   -0.896773    1.033451
H      1.071890    1.316465   -1.806037
H      2.159698   -1.786867    0.943224
