21

C      1.520521    1.640095   -0.053019
C     -2.983026   -0.516121    0.282755
C     -2.234812   -0.717633    1.421954
C     -2.361517   -0.097543   -0.876125
C     -0.882643   -0.496194    1.376836
C     -0.995047    0.120958   -0.902756
C      1.245823    0.161051    0.196922
C     -0.221044   -0.073706    0.226162
C      1.902497   -0.666232   -0.851357
O      1.228030   -1.393756   -1.525739
S      3.653606   -0.573203   -1.094250
H      1.851102    1.798473   -1.091970
H      0.581143    2.237295    0.101540
H      2.256436    2.041768    0.667066
H     -4.048222   -0.682601    0.289712
H     -2.725499   -1.046758    2.332118
H     -2.962173    0.060515   -1.777352
H     -0.283331   -0.647062    2.251487
H     -0.539008    0.451986   -1.838914
H      1.634540   -0.061331    1.210791
H      4.362620   -1.539999   -0.345863
