47

C      4.537030   -1.245182    0.361564
C      4.134391    0.766569   -0.919261
C     -4.524958   -0.312454   -1.378580
C     -4.591833    1.282737    0.448102
C      0.458792    3.690206    0.114556
C      1.821057   -1.561229    1.125973
C      1.351602   -2.626019    0.118489
C     -1.476324    1.981839   -0.007448
C      1.902390    0.916124    1.035359
C     -1.155438   -2.364790    0.378202
C      3.678067   -0.359037   -0.043891
C     -3.919148    0.153985   -0.297407
C     -0.167986    2.343587    0.237813
C      2.259891   -0.380750    0.308763
C     -0.069914   -2.332567   -0.281623
C      0.494001    1.224460    0.629242
C     -1.559055    0.633750    0.249379
C     -2.251494   -1.674728   -0.426094
C     -2.623888   -0.387040    0.199598
C     -0.442857   -1.888069   -1.656259
O      0.304784   -1.713994   -2.652168
O     -0.376673    0.246006    0.617774
O     -1.808261   -1.667726   -1.734626
H      4.324752   -2.104326    0.997446
H      5.595595   -1.106371    0.020852
H      3.294870    1.139721   -1.540095
H      4.956960    0.414907   -1.602865
H      4.541917    1.606581   -0.346124
H     -4.052638   -1.124798   -1.925031
H     -5.456407    0.114225   -1.689186
H     -4.947787    2.066054   -0.236003
H     -5.448267    0.901905    1.041144
H     -3.903912    1.753607    1.176319
H     -0.360187    4.421043   -0.044575
H      0.941602    3.968760    1.082967
H      1.168931    3.658468   -0.725408
H      2.579313   -1.987641    1.760144
H      0.951908   -1.276482    1.784273
H      2.066752   -2.516673   -0.724966
H      1.530782   -3.647274    0.461419
H     -2.258664    2.627251   -0.331535
H      2.593133    1.732912    0.750207
H      1.909566    0.682487    2.114152
H     -1.597890   -2.713801    1.333359
H      1.618622   -0.401027   -0.632832
H     -3.190133   -2.305244   -0.441057
H     -2.832991   -0.629965    1.289940
