44

C     -4.134679    2.799853   -0.533087
C     -0.528463   -4.449775   -0.162865
C     -4.751522    1.673800    0.250415
C      4.613483    2.389851    0.909468
C      3.409795    2.875166    0.407059
C      4.972434    1.073198    0.697653
C      2.582536    2.045307   -0.297241
C      4.152099    0.219596   -0.010222
C     -1.787992   -0.188724    1.664348
C      2.087694   -0.212617   -1.262079
C      0.336917    0.107187    0.355269
C      0.195849   -1.671400   -1.008644
C     -0.507070   -3.230826    0.695371
C      2.951810    0.725070   -0.504569
C     -0.565907   -0.826244    1.102043
C     -0.837271   -1.905218    0.100194
C     -2.664376    0.428076    0.659881
N      1.189358   -0.865980   -0.342093
O     -0.220108   -3.340010    1.867702
O     -2.467549    0.453152   -0.567717
O     -3.829486    1.045457    1.124288
H     -4.568204    3.765488   -0.231262
H     -4.319929    2.686231   -1.626397
H     -3.032113    2.799752   -0.363138
H     -0.817867   -4.195360   -1.198691
H     -1.196790   -5.185637    0.306413
H      0.508910   -4.863933   -0.232882
H     -5.269353    0.948254   -0.407256
H     -5.555747    2.094064    0.916693
H      5.242470    3.057756    1.456383
H      3.132139    3.920468    0.579190
H      5.909055    0.683519    1.084892
H      1.627682    2.388658   -0.708645
H      4.418303   -0.818261   -0.186251
H     -1.473203    0.575850    2.397475
H     -2.367800   -0.955640    2.198274
H      1.537100    0.360686   -2.036129
H      2.692041   -0.976215   -1.747302
H      0.970361    0.727416    1.021898
H     -0.158547    0.750283   -0.373036
H      0.630811   -2.633102   -1.352025
H     -0.288232   -1.144061   -1.863012
H      0.019849   -1.244340    1.950243
H     -1.838489   -1.886793   -0.334463
