25

C      2.080268    1.736553   -0.520102
C      0.862670    1.102547   -0.575598
C      3.192267    1.142339    0.017213
C      1.873242   -0.762326    0.462238
C     -1.373746   -0.616975   -1.305290
C      0.753754   -0.164889   -0.078358
C      3.107175   -0.138163    0.526078
C     -0.527371   -0.867653   -0.121117
C     -2.968844   -0.951396    0.579354
C     -1.817476   -0.169027    0.079523
N     -1.872326    1.238232    0.359871
O      4.221364   -0.740202    1.067195
O     -3.088091   -2.192004    0.425112
O     -3.971978   -0.283619    1.254575
H      2.188136    2.753815   -0.913826
H      0.017019    1.645119   -1.022417
H      4.159910    1.633519    0.066574
H      1.848251   -1.776186    0.876215
H     -1.097778    0.185643   -2.021022
H     -1.829279   -1.508673   -1.768604
H     -0.503890   -1.913043    0.295750
H     -2.034140    1.390372    1.359832
H     -2.638869    1.657029   -0.247789
H      4.191932   -1.660125    1.441045
H     -4.772201   -0.740887    1.670862
