26

C     -2.445244    0.359283   -1.206849
C     -1.697884    1.128371    0.976213
C      3.441333    1.052681    1.088157
C     -0.772906   -1.588955    0.132963
C     -1.218883    0.817519   -0.408983
C     -0.228059   -0.312395   -0.465097
C      2.123685   -0.639353   -0.069664
N      1.029036   -0.000640    0.130289
O     -0.962702   -1.489004    1.501822
O      2.138674   -1.741035   -0.935049
O      3.306733   -0.267835    0.552318
H     -2.882497    1.249848   -1.690378
H     -2.179528   -0.431893   -1.918787
H     -3.225423   -0.051005   -0.532587
H     -2.257867    2.093123    0.916705
H     -0.885802    1.273230    1.705035
H     -2.430011    0.378108    1.326392
H      4.440074    1.110117    1.520028
H      2.651895    1.201768    1.828744
H      3.351112    1.744718    0.226364
H     -1.726415   -1.807853   -0.390608
H     -0.050471   -2.411035   -0.041588
H     -0.779124    1.683196   -0.905060
H     -0.050894   -0.515077   -1.549205
H     -0.217206   -1.054197    1.946993
H      1.528376   -1.781686   -1.734164
