26

C     -1.939740    1.082363    0.820862
C     -1.948777   -0.430339   -1.171973
C      2.318985    1.890970   -0.696468
C     -0.470447   -1.387579    1.303495
C     -1.128169    0.448262   -0.260479
C      0.036115   -0.296913    0.359500
C      2.068476   -0.486340   -1.036747
N      0.946237   -0.779005   -0.593576
O      0.634458   -1.914281    1.964671
O      2.599391   -1.333280   -2.055888
O      2.774258    0.596226   -0.576274
H     -2.835115    0.465376    1.026515
H     -1.355160    1.147841    1.768512
H     -2.211106    2.146513    0.581366
H     -2.953720    0.046729   -1.261820
H     -2.106675   -1.441553   -0.788632
H     -1.543991   -0.473179   -2.200595
H      1.358863    2.136591   -0.217291
H      2.408953    2.351699   -1.710933
H      3.062615    2.522459   -0.091274
H     -0.973794   -2.194793    0.778295
H     -1.176293   -0.907687    2.018107
H     -0.705700    1.240896   -0.901660
H      0.539715    0.414200    1.044775
H      0.316260   -2.541753    2.682532
H      2.284363   -2.303423   -2.122186
