43

C     -4.403674    3.314222    0.950117
C     -3.104033    3.505280    0.231087
C      6.843674    0.132328    0.089461
C     -3.820601   -3.588437    1.095950
C      6.176804    1.241829   -0.362158
C      6.192908   -1.083460    0.122011
C     -2.539486   -3.602470    0.568350
C     -4.504457   -2.408632    1.124649
C      4.868347    1.145317   -0.780169
C      4.865181   -1.167227   -0.305072
C     -1.973007   -2.452865    0.085533
C     -3.952248   -1.230293    0.641694
C      2.809857   -0.175625   -1.197104
C      1.816090    0.048248   -0.069003
C      4.202092   -0.063056   -0.754329
C     -2.690516   -1.249358    0.122903
C      0.444244   -0.096591   -0.666253
C     -1.974947   -0.077378   -0.416304
C     -2.758709    1.152128   -0.372371
O      0.263153   -0.354218   -1.876856
O     -3.907540    1.206951   -0.871097
O     -2.298051    2.338077    0.216883
O     -0.681418    0.053007    0.117482
H     -4.597280    2.227779    1.111888
H     -4.356035    3.783619    1.955739
H     -5.215031    3.761248    0.361204
H     -3.292275    3.894926   -0.779909
H     -2.520943    4.297309    0.762473
H      7.856414    0.232512    0.407749
H     -4.236327   -4.513488    1.467720
H      6.677096    2.207974   -0.393661
H      6.698342   -1.982074    0.476182
H     -1.975187   -4.533011    0.535520
H     -5.488993   -2.376771    1.525556
H      4.313563    2.015526   -1.145005
H      4.400187   -2.147108   -0.258925
H     -0.956984   -2.479883   -0.329474
H     -4.520831   -0.314863    0.686161
H      2.594482    0.526966   -2.004889
H      2.624733   -1.201131   -1.606713
H      1.990968   -0.733091    0.696366
H      1.968760    1.053311    0.353702
H     -1.838323   -0.307526   -1.517087
