36

C      0.463462    3.669402    1.329402
C      3.854539   -1.780276   -1.529758
C      3.049423   -0.838143   -2.126200
C      3.576009   -2.167439   -0.242285
C     -3.135817   -0.930735    0.597640
C     -3.459398    0.118724   -0.440744
C      1.982520   -0.296292   -1.436328
C      2.511234   -1.624228    0.441102
C     -1.825122   -0.469780    1.246161
C     -2.257773    0.391180   -1.273572
C      0.563537    2.185547    1.501999
C      1.687188   -0.669030   -0.150329
C     -0.752638   -0.766622    0.214427
C      0.550672   -0.082315    0.564603
N     -1.185677   -0.536484   -1.120398
O      0.746409    1.663622    2.632374
O      0.459476    1.315185    0.424268
H     -0.119394    3.937775    0.441988
H     -0.003835    4.148073    2.229889
H      1.518422    4.037090    1.259420
H      4.703492   -2.224185   -2.052014
H      3.293904   -0.546759   -3.154807
H      4.201010   -2.911472    0.247256
H     -3.930761   -1.056851    1.345639
H     -2.972125   -1.883171    0.058879
H     -3.768228    1.037921    0.132039
H     -4.332419   -0.250213   -1.014158
H      1.385679    0.444422   -1.967082
H      2.261170   -1.903946    1.454816
H     -1.852413    0.646881    1.343861
H     -1.640790   -0.946374    2.204847
H     -2.568198    0.381834   -2.340681
H     -1.896754    1.433524   -1.081184
H     -0.547924   -1.873893    0.312832
H      0.713004   -0.289493    1.663167
H     -1.271884   -1.363474   -1.717070
