67

C     -4.959127    0.237696   -3.390644
C     -0.402271    3.952179   -2.002949
C      2.996004    2.536162    1.970584
C     -3.617974   -3.063825    3.724556
C     -5.044636   -0.165658    0.625399
C      2.639786   -2.370774    2.308278
C     -0.468655   -0.440833    2.208443
C     -1.398341   -1.277911    2.769350
C      3.098130    1.773294   -1.683388
C      3.444702    2.340099   -0.324288
C      3.427618   -0.627846   -2.334562
C     -2.102744    0.615171   -0.925477
C      3.563053   -4.256780   -2.077268
C     -3.708802    0.666572   -2.728376
C     -0.117172    3.209570   -0.765387
C      2.960000    0.280513   -1.426014
C     -0.611689    0.226921    1.007757
C     -1.803309   -0.000987    0.363460
C     -2.576049   -1.487271    2.105543
C      3.375669   -1.989706   -2.100616
C      2.404050   -0.147521   -0.218122
C      1.838992    0.836563    0.734422
C     -2.784011   -0.841222    0.888171
C      0.374971    1.161825    0.459170
C      2.832406   -2.424543   -0.907310
C      2.351320   -1.486230    0.022913
N      2.516958    2.104668    0.708852
O     -2.962750    1.494458   -3.278491
O     -0.056312    3.778545    0.327175
O     -3.584225   -2.306993    2.562013
O     -3.993210   -1.060789    0.229638
O      1.839656   -2.087106    1.177226
O     -3.356872    0.139206   -1.483523
O      3.773996   -3.101547   -2.850651
O      2.905110   -3.803711   -0.932157
O      0.107916    1.849905   -0.679433
H     -5.101416   -0.841480   -3.137931
H     -5.838664    0.852171   -3.136120
H     -4.836558    0.219125   -4.516064
H     -1.496725    3.966064   -2.237402
H      0.129001    3.589255   -2.892738
H     -0.128044    5.033900   -1.803613
H      2.195620    2.832105    2.687634
H      3.560209    3.505166    1.780497
H      3.713686    1.812031    2.393350
H     -3.933990   -2.427399    4.571782
H     -4.435932   -3.842891    3.637069
H     -2.652257   -3.554132    3.976543
H     -5.412429   -0.460868    1.654587
H     -4.641742    0.861919    0.781308
H     -5.911972   -0.210267   -0.038178
H      2.337126   -3.349444    2.710992
H      2.434023   -1.604722    3.068105
H      3.707823   -2.434093    2.029654
H      0.482932   -0.272533    2.755351
H     -1.223703   -1.774348    3.721983
H      2.246526    2.194826   -2.184103
H      3.980561    1.943202   -2.339115
H      4.407380    1.828940   -0.032728
H      3.624969    3.439339   -0.386731
H      3.859424   -0.281983   -3.268968
H     -2.334716    1.706689   -0.847142
H     -1.349679    0.350651   -1.673337
H      2.945326   -5.014132   -2.590344
H      4.500714   -4.771441   -1.767709
H      1.992138    0.425925    1.739186
H      0.278180    2.016333    1.259886
