67

C      4.126565    4.732970   -1.238571
C     -0.591673   -3.012984   -3.702859
C     -3.164854   -0.463961   -1.996116
C      5.054916   -2.788566    2.014745
C      4.637884    1.849789    1.492285
C     -0.923310   -1.981397    2.571039
C      1.365414   -1.752193    0.313261
C      2.555544   -2.103763    0.930469
C     -3.141113    2.132293   -0.618524
C     -2.569413    1.776901   -1.944153
C     -4.523153    0.868758    0.980609
C      1.967445    1.636106   -0.839584
C     -5.390091   -1.564917    3.515229
C      3.027578    3.767165   -1.276646
C     -0.268333   -1.746285   -2.989931
C     -3.377112    0.945381    0.255674
C      1.141670   -0.547404   -0.262934
C      2.228648    0.356096   -0.202914
C      3.565380   -1.217131    0.969103
C     -4.737602   -0.174699    1.815725
C     -2.340887   -0.044376    0.316622
C     -1.302819    0.234581   -0.584850
C      3.417538    0.022242    0.404013
C     -0.042600   -0.218063   -0.997756
C     -3.795640   -1.138239    1.918589
C     -2.613024   -1.047124    1.163547
N     -2.055188    0.391301   -1.910267
O      1.932797    4.108879   -1.835426
O      0.152360   -0.810271   -3.758421
O      4.832742   -1.471493    1.571084
O      4.455853    0.947130    0.436132
O     -1.749812   -2.082272    1.385529
O      3.095726    2.496733   -0.744328
O     -5.806062   -0.501577    2.660706
O     -4.273394   -2.085385    2.842085
O     -0.377937   -1.505067   -1.686056
H      3.936583    5.610696   -0.565766
H      4.193132    5.185424   -2.270737
H      5.113042    4.342078   -0.988780
H      0.302278   -3.657770   -3.761265
H     -1.376422   -3.583718   -3.162111
H     -0.882105   -2.769317   -4.729902
H     -3.262836   -1.264911   -1.239200
H     -4.156106    0.085823   -1.954811
H     -3.189773   -0.922216   -3.029869
H      6.098111   -3.091134    1.668606
H      5.170987   -2.800571    3.132923
H      4.401486   -3.541040    1.603306
H      5.008260    2.808295    1.107094
H      5.494075    1.454227    2.120135
H      3.776249    1.903979    2.173984
H     -0.279520   -1.088742    2.533973
H     -1.626766   -1.807622    3.415659
H     -0.333270   -2.889998    2.657882
H      0.615149   -2.526603    0.292249
H      2.640634   -3.074614    1.379198
H     -2.464668    2.828066   -0.045036
H     -4.098167    2.712557   -0.715094
H     -1.674415    2.435394   -2.124906
H     -3.295958    1.888218   -2.766695
H     -5.300475    1.657669    0.909184
H      1.814690    1.587763   -1.948445
H      1.151579    2.221737   -0.345266
H     -5.183218   -1.212012    4.544175
H     -6.252513   -2.293986    3.491979
H     -1.119702    1.413508   -0.436836
H      0.265615    0.379664   -1.912740
