40

C      5.480057    2.161787   -0.293919
C     -3.216084   -0.821331    0.871728
C     -2.866695    1.479517    0.479687
C      3.275123   -1.324333   -0.470198
C     -4.568043   -0.626155    0.688653
C     -4.209844    1.701709    0.292553
C      4.007530   -0.161035   -0.411323
C      1.205579   -2.588724   -0.534939
C     -0.263947   -2.420380   -0.358987
C     -0.877195    0.158728    0.938087
C     -2.347748    0.212113    0.772727
C      1.873654   -1.278237   -0.464909
C     -5.081728    0.624573    0.399256
C     -0.246727   -0.026535   -0.392783
C      3.347532    1.032809   -0.348027
C      1.207255   -0.086957   -0.401579
C      1.965702    1.047203   -0.344406
N     -0.786222   -1.244064   -0.990439
O     -6.432437    0.809326    0.218258
O      1.366704    2.277195   -0.279614
O      4.073526    2.204399   -0.288771
H      5.874925    1.453534    0.489932
H      5.932383    3.139604   -0.051424
H      5.811804    1.752527   -1.262996
H     -2.822459   -1.799155    1.098715
H     -2.216242    2.349568    0.387677
H      3.821076   -2.255776   -0.519681
H     -5.277651   -1.437897    0.763366
H     -4.587023    2.706617    0.063939
H      5.116732   -0.209442   -0.416097
H      1.571685   -3.167835    0.362782
H      1.479334   -3.149487   -1.450136
H     -0.758436   -3.294782   -0.856222
H     -0.576047   -2.501889    0.715767
H     -0.607320   -0.685569    1.639265
H     -0.581996    1.066691    1.489643
H     -0.625340    0.793311   -1.063020
H     -1.810183   -1.278983   -1.010346
H     -7.018226    1.038628    1.019705
H      0.366994    2.348727   -0.275420
