46

C      0.417593    1.086929    1.528315
C      2.526698   -1.754048   -1.086433
C      3.915517   -1.638674   -1.055654
C     -2.728201    1.398252   -0.559072
C     -3.566526   -0.669648    0.975928
C      1.573514    1.800045   -0.453616
C     -6.344860    1.400969   -0.053580
C      5.865246    1.292731   -0.094675
C      1.746512   -0.641257   -0.888511
C     -1.797746    0.438400   -0.217792
C     -2.228839   -0.608171    0.561233
C      2.371141    0.567439   -0.663772
C      4.519356   -0.417385   -0.828398
C     -4.046819    1.344719   -0.154571
C     -4.470101    0.290725    0.626598
C      0.261965   -0.759130   -0.918224
C     -0.401280    0.565258   -0.698273
C     -1.251419   -1.632914    0.939375
C     -0.209930   -1.872273   -0.074990
C      3.751065    0.703188   -0.629266
N      0.341920    1.448119    0.164829
O     -2.000471   -2.829414    1.090611
O      0.898407   -2.397285    0.647813
O      5.840313    0.020789   -0.739029
O     -5.159710    2.148747   -0.346650
O     -5.841402    0.470854    0.898946
O      4.577899    1.804684   -0.422376
H      0.998456    1.870387    2.057276
H      0.935371    0.130310    1.733733
H     -0.576296    1.062838    1.998348
H      2.142708   -2.747181   -1.273935
H      4.573305   -2.484245   -1.205470
H     -2.409783    2.244266   -1.180082
H     -3.877642   -1.516150    1.595204
H      2.141730    2.586670    0.070269
H      1.339292    2.202652   -1.472987
H     -7.153101    2.021782    0.329898
H     -6.596180    0.866026   -1.005689
H      6.678898    1.933949   -0.454903
H      5.917367    1.168595    1.016710
H      0.048884   -1.044999   -1.994716
H     -0.468961    1.114422   -1.674861
H     -0.839842   -1.467452    1.966818
H     -0.529101   -2.761003   -0.699264
H     -1.649042   -3.395720    1.796816
H      0.764093   -3.346794    0.848072
