46

C     -2.410117   -2.013328   -1.976989
C      6.017939    0.695489    1.610150
C      2.611620   -1.016252   -0.034538
C      3.740764   -0.437829    0.505472
C     -1.929382   -2.136513    1.357337
C     -1.978024   -2.998418    0.120066
C      0.616632   -1.044818   -1.477751
C      2.143291    0.947286   -1.203030
C     -3.033215    0.099338    1.692688
C     -4.024027    3.470596    0.891456
C      1.769609   -0.324600   -0.917878
C     -2.160428   -0.691253    1.023677
C     -0.556566   -1.235040   -0.648990
C      3.279458    1.578861   -0.680188
C      4.069739    0.859314    0.179730
C     -3.239245    1.394112    1.309428
C     -1.414575   -0.242670   -0.094160
C     -1.643265    1.043439   -0.450618
C     -2.527288    1.843625    0.227418
N     -1.383363   -2.377177   -1.054188
O      3.600537    2.873185   -1.010262
O     -0.972657    1.550928   -1.524526
O      5.218795    1.453276    0.727702
O     -4.056214    2.400623    1.807017
O     -2.931936    3.177840    0.063564
H     -3.355470   -1.667560   -1.467302
H     -2.078215   -1.317475   -2.746725
H     -2.725142   -2.956825   -2.512630
H      6.266226   -0.306940    1.181340
H      5.452712    0.602186    2.564642
H      6.962518    1.216400    1.828531
H      2.315430   -2.032392    0.194021
H      4.360738   -1.034996    1.193517
H     -2.811767   -2.439393    1.988419
H     -1.028837   -2.244439    1.963234
H     -1.441587   -3.938367    0.355709
H     -3.037253   -3.259487   -0.069591
H      0.403437   -0.720367   -2.537243
H      1.018693   -2.096340   -1.673913
H      1.568395    1.552437   -1.898114
H     -3.590239   -0.281624    2.552021
H     -4.983180    3.476023    0.355864
H     -3.904445    4.443643    1.425680
H     -0.060739   -1.734939    0.319686
H      2.985885    3.369476   -1.651949
H     -1.125243    2.500964   -1.807786
