35

C      0.344804   -0.130805    2.099530
C      4.484523    0.732991    0.866637
C     -2.230960   -0.705759    1.301734
C     -1.093634   -2.147944   -0.261708
C     -0.691091   -0.104432   -2.125694
C      0.694767    0.293950   -1.719611
C      0.067208   -0.150571    0.637768
C      3.261090    0.049634    0.370477
C     -1.709124    0.064046   -1.027314
C      0.919616    0.291072   -0.268300
C     -1.940777    1.479086   -0.810911
C     -1.245733   -0.699882    0.177650
N     -3.126330    1.953697   -0.969249
O      3.247647   -1.164036    0.123027
O     -0.962600    2.399206   -0.434858
O      2.127205    0.793933    0.187032
H      0.233157   -1.136356    2.557575
H     -0.241413    0.652799    2.623724
H      1.421278    0.149449    2.252770
H      4.954698    0.181585    1.706834
H      4.246704    1.745773    1.250356
H      5.167064    0.860066   -0.000239
H     -1.953276   -1.529970    1.993199
H     -3.233942   -0.907704    0.887802
H     -2.239907    0.217573    1.903699
H     -2.048000   -2.401855   -0.798869
H     -0.241629   -2.301829   -0.921477
H     -1.082164   -2.779506    0.652129
H     -1.005398    0.558368   -2.960732
H     -0.734234   -1.144237   -2.527437
H      1.405340   -0.456995   -2.170587
H      0.983864    1.267569   -2.171871
H     -2.638747   -0.420740   -1.383212
H     -3.925267    1.347720   -1.249126
H     -1.214737    3.144105    0.209251
