74

C     -1.300363    2.850221    1.875231
C     -2.393446   -0.168668   -1.289536
C      0.186885    6.226995    0.627473
C     -3.404719    2.281533   -0.164377
C     -4.328680   -4.294425    0.463610
C     -1.973975    2.596946   -0.450671
C     -4.789169   -5.019796   -0.619996
C      1.249686    1.672691   -0.238607
C     -0.018274   -0.306908    0.558045
C     -2.708661   -1.323862    0.824585
C      6.063627    0.267262   -0.311151
C     -4.994404   -2.912089   -1.097480
C     -4.456203   -2.953720    0.166985
C      1.053508    0.225411   -0.321695
C     -3.567107    1.004770    0.573964
C      0.332538    2.481574    0.172771
C     -4.101031   -1.772183    1.010842
C      5.191243   -0.936891   -0.692832
C     -1.187805    0.577144    0.807841
C      4.945055   -1.697096    0.587129
C      4.079661   -2.887460    0.243041
C      3.025814   -2.537896   -0.745319
C      0.618454    3.904671    0.222623
C     -4.907702    0.377300    0.319677
C      2.883557   -1.058473   -0.987247
C     -1.009892    2.041447    0.599104
C     -2.467165    0.005904    0.192822
O      6.423663    1.011373   -1.411220
O      6.178511   -2.064983    1.107468
O      3.550172   -3.436622    1.415705
O      3.289784   -3.133797   -1.976527
O      1.783328    4.295707   -0.153330
O     -5.743508    0.937969   -0.419195
O     -0.258267    4.887125    0.643011
O     -5.170722   -4.155594   -1.514561
O      2.282189   -0.383695    0.038055
O     -5.114003   -0.822841    0.953776
O      4.070451   -0.442390   -1.296028
H     -0.383136    3.301006    2.305626
H     -1.598346    2.080896    2.646921
H     -2.033758    3.636608    1.731025
H     -3.125036    0.485507   -1.842977
H     -2.707467   -1.213201   -1.584648
H     -1.423289   -0.022092   -1.752596
H      1.232575    6.287923    0.991228
H     -0.443681    6.903337    1.212246
H      0.213999    6.643261   -0.417944
H     -3.900532    3.091893    0.447392
H     -4.000580    2.279246   -1.124145
H     -3.937637   -4.734913    1.381219
H     -1.882886    3.699251   -0.395604
H     -1.647649    2.338986   -1.483634
H     -4.831152   -6.092037   -0.721039
H      2.244096    2.043462   -0.554455
H      0.467031   -0.678119    1.510907
H     -0.393916   -1.238637    0.075261
H     -2.104106   -1.420896    1.774709
H     -2.221193   -2.094399    0.151643
H      5.494616    0.881495    0.446321
H      6.984597   -0.053786    0.216407
H     -5.232971   -2.009604   -1.656031
H      0.927852   -0.037169   -1.392623
H     -3.519852    1.126131    1.666359
H     -4.163815   -2.188033    2.071595
H      5.817528   -1.526739   -1.403884
H     -1.411467    0.468871    1.919911
H      4.436248   -1.019812    1.296777
H      4.738820   -3.664258   -0.194713
H      2.057859   -2.922322   -0.388299
H      2.228711   -0.960528   -1.901542
H      7.397687    0.908733   -1.601316
H      6.576989   -2.844834    0.691422
H      3.128455   -4.304999    1.253868
H      3.702377   -2.486880   -2.586089
