25

C     -2.684619    0.970661    0.887823
C      3.513253    1.203299   -0.524707
C     -2.417979    0.275896   -0.452770
C     -0.992337    0.483085   -0.813981
C     -0.044997   -1.478657    0.386885
C      2.424793    0.152042   -0.455067
C      0.035513   -0.017882    0.167910
N      1.318963    0.512179   -0.069660
O     -1.303446   -1.988638    0.653989
O      2.662997   -1.171447   -0.812122
H     -2.021658    1.855627    0.954418
H     -2.479401    0.261114    1.689111
H     -3.721834    1.304833    0.941853
H      4.189718    0.908101   -1.367089
H      3.076229    2.201575   -0.676917
H      4.119229    1.220575    0.380297
H     -3.099492    0.843903   -1.170835
H     -2.746911   -0.760453   -0.435157
H     -0.777152    1.542625   -1.091155
H     -0.825467   -0.076982   -1.779617
H      0.288259   -2.008565   -0.558969
H      0.622945   -1.855571    1.188212
H     -0.298486    0.447379    1.160517
H     -1.435268   -2.900442    0.297821
H      2.597147   -1.924255   -0.106450
