59

C     -3.409290    3.100286   -1.652247
C     -5.270484   -1.588170    3.549188
C      3.869400    2.947434   -3.424269
C      4.583441   -0.683850    2.834588
C     -2.650372    0.970659   -0.007494
C     -3.221776   -0.571245    1.684904
C      2.759421    1.298906   -1.354318
C      2.996486    0.118969    0.682194
C     -0.737620   -3.108917    0.200458
C      0.734151   -1.564055   -2.346191
C     -2.269382   -0.078425    0.799560
C      2.189537    0.507739   -0.380878
C     -0.746992   -1.691800   -0.332057
C      0.639076   -1.364546   -0.848431
C     -3.921579    1.494871    0.072827
C     -4.497486   -0.054916    1.774590
C      4.057997    1.712626   -1.325105
C      4.309641    0.524239    0.732915
C     -4.869788    1.003726    0.954733
C      4.840113    1.314634   -0.260478
C     -0.912598   -0.693328    0.764874
C      0.756576    0.083931   -0.466088
O     -0.392356   -3.991644   -0.818412
O      1.988544   -1.269289   -2.822541
O     -6.153694    1.555795    1.014774
O      6.159587    1.726377   -0.216821
O     -4.321905    2.561391   -0.741808
O     -5.447147   -0.540506    2.651983
O      4.613130    2.503963   -2.306741
O      5.095341    0.119502    1.810362
O      0.114194    0.223080    0.726826
H     -2.986411    2.321520   -2.322224
H     -3.930582    3.855355   -2.289190
H     -2.581018    3.605780   -1.140994
H     -4.444661   -2.265258    3.339765
H     -5.102288   -1.155669    4.569070
H     -6.186874   -2.226062    3.662122
H      3.365770    3.888164   -3.180657
H      4.596236    3.163266   -4.240390
H      3.184853    2.161873   -3.818919
H      4.141918   -1.605473    2.394312
H      3.763030   -0.144803    3.368783
H      5.373977   -0.899830    3.567785
H     -1.951437    1.393888   -0.714451
H     -2.919421   -1.386551    2.309287
H      2.118650    1.592935   -2.174712
H      2.573539   -0.498634    1.453868
H     -0.058622   -3.171515    1.072020
H     -1.799549   -3.331840    0.492929
H      0.438166   -2.592712   -2.596002
H     -0.002611   -0.864681   -2.837824
H     -1.515825   -1.620690   -1.114089
H      1.412420   -1.947549   -0.351239
H     -0.768132   -1.248144    1.746971
H      0.286965    0.738104   -1.218933
H     -0.449475   -4.905099   -0.451678
H      2.619458   -2.020458   -2.707319
H     -6.800142    1.152637    1.679690
H      6.737905    1.444010    0.551121
