25

C     -2.611427    0.928802   -0.209283
C      2.607733    1.836395    1.145083
C     -2.145451   -0.004747    0.897265
C     -1.212067   -1.052827    0.402840
C      0.908262   -1.682196   -0.680092
C      1.797358    0.991016    0.222358
C      0.046169   -0.507967   -0.218619
N      0.820000    0.298451    0.657388
O      0.112051   -2.462867   -1.547451
O      2.127465    0.967696   -1.143371
H     -1.909949    1.786780   -0.270247
H     -3.615469    1.352152   -0.005140
H     -2.661612    0.357862   -1.159249
H      2.731352    1.363348    2.136490
H      2.155867    2.860411    1.212702
H      3.622865    1.990236    0.730112
H     -1.746040    0.565541    1.761609
H     -3.060195   -0.514467    1.268855
H     -1.757743   -1.698245   -0.312728
H     -0.940885   -1.700829    1.259277
H      1.758049   -1.331064   -1.297494
H      1.197629   -2.306305    0.168443
H     -0.272158    0.075474   -1.102393
H      0.668575   -3.082336   -2.066256
H      1.379621    0.969687   -1.850099
