31

C     -1.201904    2.014478    1.234330
C     -2.285079    0.980122    1.165706
C      1.772279   -0.215942    0.405781
C      2.282656   -1.061431   -1.736089
C      3.026267   -0.573268    0.831347
C      3.554070   -1.440722   -1.360703
C     -0.527197    1.911791   -0.114893
C      0.056186   -0.087911   -1.381176
C      1.391941   -0.457708   -0.881427
C      3.891951   -1.175819   -0.051680
C     -1.642334   -0.084600    0.273278
C     -2.747180   -0.754021   -0.445025
F      5.140768   -1.534182    0.363836
N     -2.919532   -2.015099   -0.289565
N     -0.787038    0.653732   -0.589327
O     -3.567838   -0.014203   -1.264674
H     -0.511269    1.778383    2.075775
H     -1.643691    3.022559    1.396640
H     -2.512437    0.508285    2.146289
H     -3.220575    1.370423    0.727243
H      1.097084    0.263873    1.133744
H      2.012427   -1.274959   -2.788541
H      3.352433   -0.385406    1.870629
H      4.256661   -1.921733   -2.050817
H     -1.045365    2.681890   -0.759902
H      0.501896    2.272368   -0.020877
H      0.228650    0.445933   -2.363084
H     -0.445336   -1.044679   -1.685638
H     -1.059152   -0.802022    0.880357
H     -2.305939   -2.581370    0.326307
H     -4.143401   -0.478764   -1.972157
