46

C     -0.640951    2.145855    1.157991
C      2.763961   -1.570442   -0.894185
C      4.109478   -1.570092   -0.552938
C     -2.662454   -0.269902    1.163009
C     -3.485354   -0.210509   -1.406540
C      1.495005    1.045334    1.465714
C     -6.252653   -0.803447    0.890604
C      5.837715    0.824363    1.518152
C      1.904051   -0.713904   -0.234407
C     -1.717555   -0.208144    0.153673
C     -2.108491   -0.176887   -1.168691
C      2.405006    0.116095    0.742994
C      4.594074   -0.731738    0.428844
C     -4.012462   -0.302596    0.919560
C     -4.422357   -0.271734   -0.396694
C      0.477457   -0.759725   -0.643888
C     -0.297234   -0.177778    0.542275
C     -1.178484   -0.118162   -2.322698
C      0.244603    0.042302   -1.885243
C      3.751747    0.126746    1.095090
N      0.252204    1.110577    0.782123
O     -1.307502   -1.304468   -3.080905
O      0.510890    1.396974   -1.703490
O      5.867550   -0.504782    0.984014
O     -5.168179   -0.363721    1.718086
O     -5.820395   -0.314634   -0.365096
O      4.495913    0.850486    2.025197
H     -1.548662    1.863235    1.686632
H     -0.093401    2.947276    1.739380
H     -0.957470    2.692839    0.220566
H      2.419176   -2.246733   -1.674490
H      4.773980   -2.235396   -1.066290
H     -2.375818   -0.300425    2.225652
H     -3.808971   -0.186683   -2.432236
H      1.945687    2.075581    1.495747
H      1.428996    0.671648    2.506396
H     -7.206611   -0.361979    1.213862
H     -6.275443   -1.906122    0.828999
H      6.583898    0.978170    2.297290
H      5.913787    1.517227    0.657976
H      0.183041   -1.795762   -0.785830
H     -0.085003   -0.843998    1.403318
H     -1.480413    0.736208   -2.963161
H      0.914275   -0.388043   -2.671709
H     -1.422398   -2.074883   -2.453448
H      1.455766    1.571777   -1.468570
