31

C     -1.201908   -0.148604   -1.841899
C     -1.466155    1.536982   -0.107578
C     -2.774344   -0.528633    0.000210
C      3.553407    0.895617   -0.511417
C      2.786331    1.510959    0.426655
C      3.084361   -0.209011   -1.154320
C      1.525156    0.999489    0.717731
C      1.825398   -0.708658   -0.854778
C      1.011267   -0.114935    0.092075
C     -0.605903   -0.706844    1.862314
C     -1.423970    0.050206   -0.357056
C     -0.325252   -0.636064    0.417787
O     -0.678219    0.324848    2.611033
O     -0.821191   -1.909153    2.558718
O     -0.336173   -1.982232   -0.034084
H     -0.244146    0.338157   -2.132580
H     -2.056194    0.306450   -2.375924
H     -1.113116   -1.226671   -2.016882
H     -1.690209    1.789968    0.950660
H     -0.512421    2.038531   -0.360498
H     -2.247412    2.039012   -0.713847
H     -2.669523   -1.387596    0.709811
H     -3.418927    0.215157    0.531339
H     -3.331768   -0.897603   -0.885803
H      4.529953    1.291320   -0.737055
H      3.145744    2.384587    0.941616
H      3.686127   -0.700236   -1.897219
H      0.963495    1.514222    1.456991
H      1.463126   -1.585860   -1.371067
H     -0.906795   -1.945561    3.563011
H      0.249260   -2.547844    0.512058
