54

C     -2.707460   -1.837663   -0.890525
C      8.371050    1.825290    0.787025
C     -9.086369    1.363009    0.251761
C     -8.326147    2.434235   -0.198442
C     -8.385355    0.245474    0.668139
C     -6.951176    2.415861   -0.240079
C     -6.357120   -0.913802    1.055587
C     -4.973383   -0.909803    1.006193
C      5.399044    0.187651   -1.586404
C      6.110128   -1.196129    0.235078
C      4.092406   -0.071871   -1.229826
C      4.781283   -1.440672    0.572013
C     -2.765062    0.116983    0.522166
C     -0.926122   -0.234530   -1.013085
C      1.448087   -0.511161   -0.609398
C     -7.013298    0.215280    0.631332
C      6.403736   -0.391182   -0.831656
C     -4.238321    0.163990    0.555910
C      0.080026   -0.898839   -0.098137
C      3.779177   -0.873585   -0.166938
C     -6.277082    1.289544    0.180990
N     -4.933360    1.255864    0.147862
N      7.756035   -0.118907   -1.196004
N     -2.287773   -0.479188   -0.681024
O     -0.033307   -0.487358    1.206421
O      9.062129   -0.798195    1.030510
O     10.238228    0.514177   -0.628102
O      2.466220   -1.110050    0.161385
S      8.913049    0.314441    0.022194
H     -3.740813   -1.865256   -1.307800
H     -2.056749   -2.292802   -1.693335
H     -2.617359   -2.495934   -0.016374
H      7.619801    1.645543    1.598608
H      9.217327    2.328758    1.253369
H      7.920029    2.454586   -0.011749
H    -10.167730    1.391822    0.276571
H     -8.880798    3.309364   -0.526274
H     -8.920140   -0.627672    1.031985
H     -6.435130    3.301780   -0.607858
H     -6.939554   -1.762834    1.412238
H     -4.463540   -1.801595    1.342314
H      5.632672    0.825592   -2.432307
H      6.902739   -1.654023    0.831263
H      3.332496    0.401021   -1.846400
H      4.607763   -2.088557    1.429926
H     -2.409499   -0.506439    1.369749
H     -2.383294    1.151040    0.566479
H     -0.750728   -0.712638   -2.023009
H     -0.687558    0.826093   -1.164735
H      1.610192    0.601563   -0.515954
H      1.574987   -0.721662   -1.695186
H     -0.016261   -2.002278   -0.176411
H      8.038834   -0.184912   -2.199893
H      0.373046    0.410578    1.285917
