37

C      2.839508   -2.304911    0.504091
C      5.329220    1.763051   -0.757960
C      5.026536    0.889389   -1.779188
C      4.604472    1.669032    0.419653
C      4.022412   -0.028315   -1.575532
C      3.604433    0.749915    0.613148
C     -6.115071    0.120762   -0.850649
C     -4.841913   -0.260334   -1.199174
C     -5.227969    0.879711    1.251441
C     -1.619464    0.241884    1.275989
C      2.252395   -1.150089   -0.317354
C      3.297791   -0.127098   -0.406792
C     -6.305907    0.695988    0.387468
C     -3.960498    0.484876    0.869124
C     -2.882837    0.659116    1.711261
C     -3.751452   -0.094467   -0.370926
C     -1.476641   -0.322656    0.042584
C     -0.173684   -0.779533   -0.467141
F     -7.569336    1.073236    0.731210
N      1.024103   -0.678557    0.256603
O     -3.002854    1.177183    2.847679
O     -0.118577   -1.296902   -1.628538
O     -2.534826   -0.456535   -0.699168
H      3.935035   -2.384979    0.355045
H      2.405979   -3.268317    0.111155
H      2.667767   -2.170557    1.578828
H      6.118730    2.509120   -0.873644
H      5.579218    0.943206   -2.709648
H      4.838248    2.358473    1.235006
H      3.797900   -0.716400   -2.405657
H      3.030496    0.661078    1.519654
H     -6.977166   -0.017351   -1.521446
H     -4.708763   -0.710037   -2.173749
H     -5.391002    1.327305    2.208872
H     -0.776858    0.376874    1.931557
H      2.052960   -1.555194   -1.326190
H      1.007617   -0.257965    1.212384
