31

C     -1.330962    1.541618   -0.731008
C     -2.738350   -0.120747    0.349449
C     -1.020075    1.060808    1.636460
C      3.683401    0.313114   -0.181527
C      3.178349   -0.261093    0.967037
C      2.873854    0.554889   -1.258928
C      1.830269   -0.564915    0.946578
C      1.536836    0.241574   -1.248792
C      0.999799   -0.329501   -0.127307
C     -0.824683   -1.421178   -1.238293
C     -1.334620    0.447169    0.289016
C     -0.408739   -0.690917   -0.015747
O     -0.867761   -0.892732   -2.382894
O     -1.203449   -2.765718   -1.206494
O     -0.554231   -1.609893    1.054808
H     -0.353954    2.050849   -0.844467
H     -2.045266    2.319677   -0.387278
H     -1.736579    1.165273   -1.694487
H     -3.378166    0.581445    0.922924
H     -3.110730   -0.272417   -0.691987
H     -2.729901   -1.102243    0.901536
H     -1.630350    0.544825    2.390683
H      0.068051    0.999868    1.852116
H     -1.375520    2.113337    1.614680
H      4.747971    0.563007   -0.190646
H      3.813761   -0.455677    1.825007
H      3.347011    1.013982   -2.136963
H      1.438991   -1.023326    1.870260
H      0.947071    0.464728   -2.138511
H     -1.227040   -3.318701   -2.071555
H     -0.594987   -1.147105    1.926330
