67

C    -10.648860    0.827858    0.702339
C     -9.663668    1.228149    1.582943
C    -10.484028   -0.321622   -0.038886
C     -3.135300    0.361969   -2.919959
C     -1.770596    0.199520   -2.741613
C     -4.026685   -0.104330   -1.983940
C     -8.511758    0.460713    1.710111
C     -9.320882   -1.073552    0.106267
C      8.175079   -3.458431    0.751786
C      4.117532    3.664069    0.927220
C      2.849258    3.333285    1.342052
C      8.321840   -2.731546   -0.437156
C     -2.181078   -0.895908   -0.691138
C      0.174816   -0.625083   -1.397227
C      7.225592   -1.485401    1.752765
C      4.221487    1.739598   -0.421540
C      0.251016    0.743368    0.710474
C      6.894232    2.513807   -1.229641
C     -1.271073   -0.436133   -1.616823
C     -3.534571   -0.740770   -0.857058
C      0.816291    0.501486   -0.658253
C      7.622849   -2.790606    1.814755
C      4.852649    2.878804    0.028844
C     -8.330559   -0.687756    0.979349
C      2.948019    1.411369   -0.002154
C      7.358565   -0.731676    0.580131
C      2.232597    2.188684    0.881235
C      7.917429   -1.424291   -0.478807
C      7.139780    1.155605   -0.626468
C      2.295007    0.177874   -0.504533
C     -4.467055   -1.239048    0.142762
F      7.468479   -3.492591    3.002316
N      7.037400    0.512464    0.339919
N     -5.738407   -1.090897   -0.010069
O      2.525864   -0.821573    0.420902
O     -3.977384   -1.878297    1.267951
O     -6.352749   -1.486326    2.527040
O     -7.170488   -3.099521    0.808301
O      6.125251    3.279006   -0.342598
O      0.944242    1.832136    1.289104
S      7.919260   -0.151029   -1.761693
S     -6.892648   -1.654573    1.130329
H    -11.552687    1.449129    0.616526
H     -9.810195    2.130833    2.154918
H    -11.275043   -0.603836   -0.717248
H     -3.496275    0.860103   -3.804305
H     -1.105055    0.575519   -3.491515
H     -5.095686    0.035608   -2.146952
H     -7.762150    0.799970    2.405573
H     -9.197120   -1.973542   -0.477286
H      8.475410   -4.473156    0.826464
H      4.598511    4.564634    1.291958
H      2.284713    3.944089    2.037134
H      8.739074   -3.157062   -1.319689
H     -1.800744   -1.393212    0.189806
H      0.286422   -1.552649   -0.782325
H      0.737978   -0.801585   -2.323994
H      6.799485   -1.058473    2.661750
H      4.758606    1.094357   -1.136142
H     -0.824218    1.038592    0.625420
H      0.339671   -0.110285    1.386460
H      7.849308    3.052689   -1.406791
H      6.415457    2.404929   -2.232702
H      0.739025    1.458557   -1.220815
H      2.683293   -0.083170   -1.516989
H      1.767798   -1.395741    0.610587
H     -4.512320   -2.653179    1.690818
