41

C      0.300118   -1.654668   -1.139663
C      2.348404   -0.306639   -0.599876
C     -0.826560   -2.383983   -0.483431
C      3.075019    0.322444    0.562131
C      0.329534   -0.016648    0.755183
C     -1.868281    0.742882   -0.173074
C     -3.055092   -1.479228   -0.050740
C      1.111601   -0.985089   -0.054449
C     -1.619888   -1.587365    0.480472
C     -1.138653   -0.225963    0.769767
C     -3.275707    0.875380    0.374433
C      4.312800    1.018362    0.125431
C     -4.136511    1.720943   -0.473727
N     -3.792901   -0.438784    0.593151
N      5.129384    1.654802    0.977477
N      4.841069    1.153842   -1.099359
N      6.137390    2.175281    0.324574
N      5.956092    1.865746   -0.946173
O     -5.217148    1.359090   -0.969630
O     -3.707747    3.014987   -0.736770
H      0.003233   -0.976604   -1.942997
H      0.973245   -2.438908   -1.596268
H      3.023802   -1.024191   -1.109280
H      2.033675    0.510950   -1.274998
H     -1.472999   -2.817744   -1.299957
H     -0.377877   -3.296403    0.008186
H      2.436927    1.090434    1.045593
H      3.299015   -0.430695    1.362132
H      0.758826    0.000807    1.791667
H      0.516821    1.024909    0.360153
H     -1.368297    1.731943   -0.168549
H     -1.855522    0.375561   -1.215524
H     -3.551281   -2.445147    0.179739
H     -3.056378   -1.386986   -1.158058
H      1.481919   -1.814312    0.609655
H     -1.704389   -2.172141    1.443245
H     -1.501523    0.058760    1.802956
H     -3.160729    1.352277    1.391800
H     -3.922276   -0.690954    1.597909
H      6.905328    2.719599    0.777389
H     -4.364443    3.803453   -0.840523
