41

C     -2.391914   -1.616319    1.171656
C     -3.809496   -0.945117   -0.601926
C     -0.571598    3.049677    0.884868
C      0.810400    2.687487    1.379103
C      2.850217   -1.794166   -2.042633
C     -1.358522    1.825304    0.502975
C      2.069676   -0.645017   -1.862743
C      3.132698   -2.591412   -0.948874
C      1.568769    1.873301    0.398130
C      1.871429   -1.096950    0.435549
C     -1.461688   -0.300268   -0.620527
C      1.579948   -0.290369   -0.642234
C     -0.544301    0.596033    0.219172
C      2.639948   -2.240939    0.301947
C      0.736880    0.933711   -0.443041
N     -2.631490   -0.660705    0.119969
O      2.912822   -3.030132    1.417097
O      0.473906    1.541841   -1.662764
H     -3.356612   -1.813953    1.668946
H     -2.125852   -2.583240    0.639110
H     -1.610401   -1.337882    1.882891
H     -3.765636   -0.734044   -1.682897
H     -4.196230   -1.994999   -0.469678
H     -4.661055   -0.315282   -0.194259
H     -0.470388    3.790336    0.076557
H     -1.078256    3.584449    1.722658
H      1.342245    3.648091    1.555697
H      0.750497    2.176082    2.371935
H      3.236437   -2.079358   -3.011103
H     -1.926835    2.064802   -0.450859
H     -2.165313    1.617550    1.231382
H      1.894693   -0.077181   -2.751905
H      3.744114   -3.491333   -1.046905
H      2.307449    1.256609    0.994585
H      2.223326    2.510010   -0.253460
H      1.492583   -0.821172    1.424810
H     -0.908367   -1.183373   -0.993557
H     -1.812876    0.225757   -1.538212
H     -0.353809    0.045582    1.188002
H      2.242532   -3.759286    1.595657
H      1.320072    1.975877   -1.965120
