39

C     -4.818842    0.699365   -1.295180
C      1.085719   -0.294541    2.407165
C     -4.757237   -0.196714   -0.102581
C     -3.483395   -0.067532    0.690782
C     -2.259173   -0.401083   -0.139852
C      5.208700   -0.122730   -0.635582
C      5.032671   -0.210583    0.744928
C      4.105783   -0.115730   -1.457870
C     -1.057833   -0.233204    0.768672
C      3.747128   -0.288945    1.257016
C      1.686270   -0.185082   -1.846813
C      0.487167    0.366465   -1.105814
C      2.843524   -0.194261   -0.928044
C      0.229040   -0.529701    0.083923
C      2.642425   -0.281777    0.431919
N      1.325418   -0.365004    1.005739
H     -5.754585    1.325410   -1.254644
H     -4.904089    0.040496   -2.205199
H     -3.940481    1.344755   -1.323118
H      0.125161    0.226274    2.585626
H      1.834310    0.279572    2.987838
H      0.947966   -1.325542    2.817256
H     -4.864811   -1.268679   -0.369821
H     -5.593065    0.033253    0.586087
H     -3.441057    0.946799    1.108425
H     -3.581923   -0.760026    1.562824
H     -2.353070   -1.421042   -0.525724
H     -2.227365    0.290421   -0.984380
H      6.224366   -0.062714   -1.007841
H      5.894067   -0.215978    1.385686
H      4.306013   -0.045377   -2.525757
H     -1.196174   -0.954137    1.595560
H     -1.091180    0.836298    1.095132
H      3.634835   -0.356212    2.312820
H      1.867858    0.411774   -2.761646
H      1.453770   -1.253491   -2.119679
H      0.785336    1.375574   -0.728293
H     -0.346867    0.399774   -1.814919
H      0.203619   -1.575468   -0.294641
