43

C      1.405856   -2.143812    0.163252
C      4.959895    1.215179   -0.394706
C      4.400119    0.677878   -1.541259
C      4.296938    1.121551    0.807729
C      3.190954    0.057036   -1.469814
C      3.082291    0.497602    0.875855
C     -3.353289   -0.743122    1.190261
C     -2.435640    1.494938    0.979840
C     -3.893584   -0.371921   -0.182142
C     -2.631144    1.608708   -0.529266
C     -1.617122   -0.435416   -0.985818
C      1.210792   -0.718092   -0.245537
C      2.524482   -0.037581   -0.264687
C     -2.070405    0.083793    1.357752
C     -1.067567   -0.533802    0.411362
N      0.249886    0.005618    0.537293
N     -2.897890    0.259962   -1.013176
Cl     0.684270    0.000000    0.000000
Cl     0.689777    0.000000    0.000000
H      0.665626   -2.834856   -0.276440
H      2.404472   -2.464051   -0.185569
H      1.381815   -2.286745    1.265929
H      5.921878    1.710613   -0.438417
H      4.919764    0.753898   -2.471941
H      4.719183    1.538451    1.724304
H      2.746285   -0.368561   -2.376771
H      2.529214    0.405873    1.819837
H     -3.078011   -1.831475    1.105358
H     -4.072150   -0.550307    1.993277
H     -3.399572    1.751480    1.457481
H     -1.653600    2.167658    1.354178
H     -4.702900    0.395811   -0.032199
H     -4.385759   -1.231192   -0.686711
H     -3.523422    2.235000   -0.756867
H     -1.697180    2.012433   -0.984289
H     -0.931575    0.222774   -1.578787
H     -1.749718   -1.418494   -1.473729
H      0.817880   -0.741909   -1.287090
H     -1.726035    0.064627    2.410157
H     -1.046532   -1.630177    0.683740
H      0.505766    0.060629    1.550157
H     -0.684270    0.000000    0.000000
H     -0.689777    0.000000    0.000000
