40

C     -0.629997   -2.679101   -0.883051
C      3.934448    0.291424   -0.778261
C      2.869276   -0.009089    1.467269
C     -3.018466    1.242580   -1.274343
C     -2.768325    0.868652    1.162512
C     -2.241806   -0.523416    1.453952
C      1.706723    1.338539   -0.282878
C     -0.794824    1.544658   -0.187748
C      1.844609   -1.002817   -0.511725
C     -0.683060   -1.271989   -0.356074
C      0.399203    0.787912    0.298584
C      0.453068   -0.604908   -0.223541
C      2.641217    0.178414   -0.009573
C     -2.070223    0.788096   -0.185039
C     -1.970033   -0.682141   -0.008275
O     -3.013646   -1.318793   -0.715562
H      0.385318   -2.924879   -1.255111
H     -1.414149   -2.856387   -1.643525
H     -0.832344   -3.353202   -0.018365
H      4.024184    1.216960   -1.351914
H      4.818955    0.240262   -0.092822
H      4.043734   -0.598994   -1.455192
H      3.711213   -0.748209    1.568147
H      3.159779    0.925783    1.984372
H      1.984475   -0.489408    1.933774
H     -3.903465    0.598102   -1.372598
H     -2.492987    1.425508   -2.240471
H     -3.405682    2.245949   -0.941138
H     -2.349871    1.612951    1.853345
H     -3.874620    0.846934    1.102308
H     -3.031552   -1.237981    1.773621
H     -1.316569   -0.573686    2.041975
H      1.985185    2.256234    0.239313
H      1.557452    1.434070   -1.364353
H     -0.899769    2.450151    0.451762
H     -0.559012    1.920765   -1.209420
H      2.140218   -1.951750   -0.033708
H      2.033477   -1.055523   -1.619256
H      0.513496    0.839737    1.400502
H     -2.935632   -1.171414   -1.679127
