29

C      2.711347    1.088448    1.211491
C      2.539566   -0.146866   -0.853162
C     -0.866596    2.004088    0.198820
C     -1.736299   -1.095963   -1.541214
C      0.229372   -1.394769    0.734526
C     -1.278053   -1.330896    0.854299
C      1.948870    0.369211    0.401595
C     -0.444607    0.626737   -0.246209
C      0.555736    0.101692    0.757317
C     -1.606736   -0.339999   -0.242070
O     -2.800116    0.310030    0.060861
H      2.298513    1.484979    2.151288
H      3.760249    1.296167    0.954798
H      1.824223   -0.722666   -1.455927
H      2.914536    0.736117   -1.433365
H      3.425974   -0.769419   -0.557016
H     -0.432121    2.275487    1.194071
H     -0.486146    2.793985   -0.509604
H     -1.967617    2.099775    0.311446
H     -1.959933   -2.183267   -1.338118
H     -2.636581   -0.708232   -2.072878
H     -0.826482   -1.083966   -2.153803
H      0.711686   -1.940172    1.544644
H      0.479209   -1.786892   -0.278147
H     -1.558651   -0.902287    1.839421
H     -1.755854   -2.309244    0.675459
H      0.006750    0.694368   -1.260960
H      0.323829    0.453034    1.774821
H     -3.374068    0.380522   -0.722387
