52

C     -2.033673   -3.025956    0.974999
C     -2.566562   -1.816923   -1.081883
C      2.471803    2.291020    0.175021
C      2.844467   -2.816979   -1.320829
C     -3.016273    1.671332    0.684193
C      0.168090    3.050956   -0.054817
C     -1.040319    3.042489    0.856578
C      2.006784   -1.333732    0.434376
C      1.619785   -0.745188   -1.940691
C      1.127649   -0.435464    0.825711
C      0.836945    0.412570   -1.509245
C     -1.644376   -0.384182    2.045615
C     -1.567868   -1.934790    0.057873
C      1.070295    1.948118    0.459827
C     -1.406841   -0.634767    0.775028
C     -1.351114    1.038893    2.334909
C     -0.931919    0.612685    0.122378
C      2.541085   -1.368607   -0.960832
C     -1.505067    1.656656    0.991314
C      0.578390    0.627932   -0.067798
O     -1.056586    1.545569    3.431390
O      3.807695   -0.741459   -0.960333
H     -1.578367   -2.960936    1.994379
H     -1.744875   -4.031728    0.594605
H     -3.143610   -3.039323    1.075343
H     -3.484273   -1.287540   -0.694766
H     -2.845733   -2.813550   -1.423489
H     -2.123192   -1.245712   -1.923003
H      3.123169    2.107148    1.081338
H      2.549651    3.411339    0.037109
H      2.922732    1.862451   -0.732779
H      3.405472   -3.278509   -0.489040
H      3.570840   -2.756931   -2.183161
H      1.963360   -3.373462   -1.642615
H     -3.193303    1.467606   -0.396301
H     -3.435368    2.691504    0.862028
H     -3.556965    0.950537    1.318028
H      0.685751    4.031113   -0.071287
H     -0.185179    2.816896   -1.090019
H     -1.804167    3.767216    0.508133
H     -0.671349    3.423959    1.850537
H      2.333755   -2.063827    1.185576
H      0.939274   -1.570013   -2.315991
H      2.232360   -0.501349   -2.861053
H      0.779457   -0.456717    1.852608
H     -0.119831    0.411818   -2.117689
H      1.346467    1.345861   -1.900448
H     -2.004035   -1.125250    2.772379
H     -0.618845   -2.235277   -0.382990
H      0.947756    1.886187    1.582743
H     -1.428791    0.708784   -0.889555
H      4.185451   -0.802468   -1.873403
