38

C      4.420480   -0.217451   -0.530309
C     -0.602085    2.068366   -1.530087
C     -1.794746   -1.310091   -0.931539
C     -0.180684   -2.140063    0.700951
C      2.032110   -0.280257   -1.520657
C      2.441329    0.192876    0.761682
C      0.744632   -0.162044   -1.397274
C      1.011200    0.329511    0.984755
C     -1.634303    1.909325    0.640322
C      2.956857   -0.098019   -0.399190
C     -0.717513    1.413650   -0.402847
C     -2.576884    0.805767    1.024730
C     -1.781335   -0.430618    1.363233
C     -0.942199   -0.922671    0.236099
C      0.071488    0.162482   -0.148933
Br    -3.013658   -1.833194    1.929041
O     -3.579379    0.585509    0.114683
H      4.864123    0.807107   -0.644461
H      4.751012   -0.855828   -1.351166
H      4.820668   -0.581252    0.460531
H     -1.159848    2.967930   -1.726138
H      0.070371    1.706965   -2.295824
H     -2.184677   -0.441316   -1.502348
H     -2.704491   -1.821887   -0.515286
H     -1.286975   -2.055719   -1.567065
H      0.876885   -2.127913    0.365477
H     -0.692874   -3.035250    0.296183
H     -0.258446   -2.238805    1.811301
H      2.518181   -0.526017   -2.478272
H      3.096624    0.342014    1.606080
H      0.145747   -0.323422   -2.306777
H      0.786347    1.279878    1.569191
H      0.764169   -0.484388    1.756528
H     -2.247538    2.766640    0.299793
H     -1.059196    2.237939    1.528637
H     -3.071411    1.130424    1.985145
H     -1.182050   -0.184480    2.263507
H     -3.701931    1.364303   -0.449694
