83

C      1.549570   -0.259525   -2.359818
C     -4.933449    1.410377    0.927594
C      1.735449    0.151679   -3.681569
C     -5.907140    1.880992    1.747968
C      1.490310   -2.494414   -3.073333
C     -3.716906    3.465737    1.155668
C      6.165151    1.179246   -0.749275
C      4.214330    1.946875    0.326395
C     -3.129481   -3.224014   -1.174252
C     -3.641971   -1.201377   -2.298759
C      2.255999   -2.536724    1.553590
C     -0.481606   -1.873996    4.011145
C      1.424847   -1.592584   -2.042935
C     -3.842596    2.194139    0.630460
C      4.923662    0.912998   -0.244187
C     -3.623709   -2.572184   -2.281191
C      0.959337   -2.078218    2.109653
C      1.797583   -0.776239   -4.700136
C     -5.786653    3.149492    2.275185
C      0.701752   -2.296260    3.466221
C      1.672905   -2.105423   -4.382322
C     -4.693844    3.937893    1.978254
C     -2.655955   -2.519796   -0.090161
C     -1.408823   -1.239450    3.222819
C      6.686331    2.475295   -0.680275
C      4.712452    3.237334    0.404937
C     -3.164689   -0.521457   -1.207186
C      2.499375   -1.998524    0.178487
C     -2.663154   -1.140885   -0.082967
C     -1.202498   -1.004560    1.892571
C     -2.181801   -0.315490    1.018026
C      5.953230    3.490955   -0.103092
C     -1.653489    0.981825    0.487090
C      1.225630   -1.995295   -0.650328
C     -2.749346    1.699560   -0.247703
C      0.021583   -1.447115    1.351172
C      4.345814   -0.441646   -0.302236
O     -4.108510   -3.273470   -3.390530
O      1.985823   -0.356812   -6.036875
O     -6.770848    3.631024    3.107701
O      1.661545   -2.942026    4.227575
O      1.729317   -3.054592   -5.366564
O     -4.543755    5.224834    2.495590
O     -2.157683   -3.166953    1.026888
O     -2.620484   -0.800886    3.756761
O      7.946054    2.764284   -1.188346
O      3.954422    4.261935    0.995508
O      6.484808    4.789301   -0.037883
O     -1.107247    1.752939    1.511303
O      4.975434   -1.399757   -0.823729
O     -3.212797    0.886429   -1.290464
O      3.093162   -0.718906    0.211107
O      0.238701   -1.216627    0.008317
H      1.512862    0.533420   -1.622008
H     -5.043560    0.407865    0.510599
H      1.835313    1.196352   -3.949504
H     -6.799537    1.295530    2.017632
H      1.387527   -3.557697   -2.801319
H     -2.856830    4.092353    0.925569
H      6.771666    0.411151   -1.210487
H      3.225679    1.800826    0.743763
H     -3.127833   -4.301977   -1.190015
H     -4.032683   -0.665496   -3.171917
H      3.029461   -2.152811    2.282415
H      2.340559   -3.642759    1.544201
H     -0.669292   -2.053809    5.086667
H      3.219539   -2.675936   -0.322471
H     -3.052424   -0.047317    1.683025
H     -0.830769    0.832268   -0.261982
H      0.810843   -3.042303   -0.674828
H     -2.256070    2.590972   -0.727520
H     -5.084386   -3.529076   -3.430675
H      2.022354   -1.086374   -6.734977
H     -7.574225    3.096068    3.340831
H      2.521404   -3.262814    3.838561
H      1.643710   -4.044690   -5.185617
H     -5.248724    5.602901    3.107246
H     -2.108320   -4.159463    1.123553
H     -2.781781   -0.970923    4.736493
H      8.321535    3.700378   -1.138083
H      3.037665    4.046827    1.366493
H      5.946145    5.526522    0.384496
H     -0.605966    1.200070    2.137988
