83

C      1.614535    0.202037   -2.047512
C     -5.539928    2.200968   -0.136835
C      2.122949   -0.531800   -3.093498
C     -5.852272    3.316238   -0.860977
C      1.520281   -1.723628   -0.712300
C     -4.168055    1.461556   -1.917362
C      5.615857    1.259094   -0.886460
C      5.527976    3.536296   -0.352147
C     -2.466292   -4.598436    0.365445
C     -3.894587   -3.395738   -1.065684
C      1.899914   -0.121209    2.473970
C     -0.816609   -1.229727    4.814803
C      1.297959   -0.369947   -0.826391
C     -4.688036    1.252282   -0.658992
C      4.952952    2.286678   -0.267120
C     -3.234913   -4.584557   -0.759116
C      0.595981   -0.535093    3.040260
C      2.340733   -1.879310   -2.968880
C     -5.346451    3.550529   -2.121779
C      0.423184   -0.846034    4.366169
C      2.029279   -2.476775   -1.748933
C     -4.489900    2.599816   -2.650325
C     -2.328657   -3.497868    1.184473
C     -1.916116   -1.310108    3.938596
C      6.797164    1.425263   -1.568626
C      6.739866    3.733825   -1.045958
C     -3.764694   -2.288505   -0.254416
C      1.828980    0.786633    1.306271
C     -2.967895   -2.328195    0.897160
C     -1.755971   -1.000276    2.606892
C     -2.903359   -1.085212    1.676040
C      7.374008    2.690490   -1.651490
C     -2.923682    0.066903    0.662119
C      0.751757    0.395383    0.322371
C     -4.371455    0.064444    0.134947
C     -0.491075   -0.619528    2.199758
C      3.709823    2.144225    0.455879
O     -3.348572   -5.719455   -1.561013
O      2.852709   -2.610531   -4.024558
O     -5.667012    4.695518   -2.865244
O      1.524371   -0.756292    5.199985
O      2.253416   -3.834854   -1.638664
O     -3.973643    2.817915   -3.912288
O     -1.538926   -3.535993    2.326796
O     -3.140090   -1.703507    4.446500
O      7.445572    0.368218   -2.185551
O      7.282356    5.008281   -1.105689
O      8.566765    2.815053   -2.349543
O     -2.598888    1.277522    1.217220
O      3.137369    3.117054    1.009724
O     -4.459686   -1.143240   -0.637256
O      3.039725    0.944558    0.606619
O     -0.320027   -0.312469    0.886033
H      1.464771    1.259170   -2.204457
H     -5.977875    2.069407    0.868959
H      2.364623   -0.069298   -4.037450
H     -6.512855    4.040347   -0.442608
H      1.295255   -2.223021    0.208654
H     -3.493417    0.749085   -2.375367
H      5.190284    0.271716   -0.836913
H      5.100176    4.405353    0.091712
H     -1.931998   -5.494503    0.651046
H     -4.496389   -3.417972   -1.964857
H      2.414283    0.450559    3.306222
H      2.578696   -0.975851    2.295341
H     -0.978620   -1.481673    5.864288
H      1.574675    1.801616    1.678026
H     -3.873567   -0.978292    2.215924
H     -2.322666   -0.211486   -0.228714
H      0.289608    1.321242   -0.135642
H     -5.073693   -0.049997    0.985988
H     -3.944958   -5.645996   -2.396070
H      3.016958   -3.612245   -3.934384
H     -6.299830    5.350430   -2.416290
H      1.391332   -0.985267    6.171327
H      2.064149   -4.373130   -0.799977
H     -4.207008    3.642837   -4.441898
H     -1.039573   -4.389673    2.585513
H     -3.998500   -1.817257    3.987384
H      7.114166   -0.570096   -2.182778
H      8.129110    5.245187   -1.567890
H      9.009684    3.705384   -2.432232
H     -3.125515    2.004932    0.765607
