83

C      0.713789   -2.212329    0.438510
C     -5.487615   -1.064595    0.467954
C      0.751095   -3.562850    0.179743
C     -6.163271   -2.246563    0.677288
C      1.692176   -1.877767   -1.682240
C     -4.684973   -1.866106   -1.569179
C      6.863869    1.029512   -1.346736
C      6.158248   -1.149154   -0.802727
C     -2.948797    5.087060    0.387593
C     -4.782604    3.952790   -0.677969
C      2.113516    0.464508    2.021422
C     -0.730299    1.666131    4.125483
C      1.193641   -1.348589   -0.510583
C     -4.728044   -0.834647   -0.658225
C      5.892035    0.187207   -0.850226
C     -4.105475    5.109454   -0.358779
C      0.765989    0.887665    2.425918
C      1.249970   -4.093342   -0.992987
C     -6.108487   -3.282761   -0.257552
C      0.537845    1.260620    3.730874
C      1.730310   -3.227727   -1.942756
C     -5.357351   -3.071994   -1.385018
C     -2.445511    3.880978    0.833289
C     -1.767118    1.692508    3.192892
C      8.090839    0.598950   -1.798816
C      7.382794   -1.615176   -1.249645
C     -4.281491    2.747112   -0.234028
C      2.358263    0.598102    0.541925
C     -3.102929    2.732942    0.526620
C     -1.557974    1.319651    1.870286
C     -2.674791    1.370724    0.956588
C      8.363445   -0.753599   -1.752136
C     -2.638527    0.494095   -0.250888
C      1.182803    0.145771   -0.291532
C     -4.006092    0.433134   -0.869239
C     -0.273257    0.927636    1.547434
C      4.631357    0.774790   -0.406759
O     -4.583918    6.320756   -0.788279
O      1.269749   -5.478523   -1.217779
O     -6.790007   -4.453354   -0.028594
O      1.580622    1.230445    4.654114
O      2.236860   -3.740300   -3.130402
O     -5.277973   -4.077505   -2.337664
O     -1.296647    3.828489    1.576330
O     -2.996342    2.109436    3.670184
O      9.038033    1.486100   -2.290490
O      7.717520   -2.963626   -1.229106
O      9.576915   -1.214334   -2.195140
O     -2.279449   -0.814279    0.063908
O      4.417451    2.020828   -0.472107
O     -4.852146    1.518090   -0.479232
O      3.578102    0.039110    0.113873
O     -0.047862    0.557984    0.252644
H      0.316401   -1.849797    1.365386
H     -5.547248   -0.270735    1.207632
H      0.365879   -4.261615    0.940447
H     -6.763522   -2.429672    1.566625
H      2.081143   -1.188047   -2.452661
H     -4.105807   -1.737736   -2.465275
H      6.661897    2.089788   -1.387557
H      5.414903   -1.838591   -0.417741
H     -2.439663    6.037360    0.619213
H     -5.694791    3.953421   -1.263489
H      2.839217    1.057124    2.617739
H      2.255421   -0.593452    2.374076
H     -0.904860    1.959221    5.156118
H      2.464352    1.698882    0.356959
H     -3.569487    0.997103    1.553595
H     -1.967391    0.966663   -0.999001
H      1.223028    0.577513   -1.310301
H     -3.931018    0.538134   -1.998140
H     -5.231634    6.891143   -0.266016
H      0.907729   -6.093207   -0.496360
H     -6.842229   -5.261274   -0.594346
H      1.410017    1.506417    5.617007
H      2.581922   -3.101979   -3.809980
H     -5.741791   -4.946391   -2.240532
H     -0.808427    4.684981    1.804334
H     -3.844753    2.193946    3.154015
H      8.799050    2.467584   -2.307422
H      7.040492   -3.623025   -0.875162
H     10.264437   -0.569791   -2.552248
H     -2.351555   -1.377425   -0.747512
