27

C     -2.924088   -0.066082   -1.220407
C     -3.158503    1.079511    1.003186
C      4.606438    0.374707    0.004369
C     -0.882097   -1.514253    0.519119
C      1.017288    0.018510    0.781159
C     -0.186603   -0.320080   -0.073398
C     -2.324946    0.158247    0.142941
O      3.282630   -0.815962   -1.970377
O      2.421164    1.348157   -1.296204
O     -2.162580   -1.059462    0.781999
O      2.077566   -0.724218    0.306144
O     -1.077068    0.737781   -0.000139
S      3.037421    0.089943   -0.785725
H     -2.741672    0.797615   -1.908300
H     -2.453776   -0.996266   -1.627505
H     -4.031873   -0.186996   -1.151871
H     -3.802087    0.423961    1.641801
H     -3.790861    1.748969    0.401563
H     -2.475187    1.611153    1.697126
H      5.158133   -0.589364   -0.044610
H      5.140205    1.216140   -0.462604
H      4.415575    0.618332    1.075373
H     -0.430529   -1.801599    1.498091
H     -0.854021   -2.402864   -0.134464
H      1.197042    1.100994    0.816870
H      0.821042   -0.331556    1.823878
H      0.121387   -0.515318   -1.125341
