47

C      2.139108    1.033318   -1.761501
C     -2.380265   -3.166789   -0.930764
C     -2.805105    3.142917    1.408192
C      3.050198   -0.014779   -1.201614
C      4.253825   -1.037585    1.150600
C      3.357545    0.014725    1.739971
C     -4.473754    0.335480   -1.669279
C     -3.792786   -0.834078   -1.434526
C      3.277411   -1.824379    0.302430
C      0.946160   -0.654371    1.697399
C      2.085341   -0.012116    0.930954
C     -4.006831    1.534662   -1.147651
C     -2.629175   -0.794680   -0.666101
C     -2.153326    0.389177   -0.141399
C     -2.861104    1.542154   -0.396677
C     -0.931611    0.387438    0.657334
Br    -4.919114    3.177202   -1.448490
N     -0.263362   -0.669692    0.903622
N      2.391339   -0.832550   -0.217863
O     -0.473377    1.591532    1.174328
O     -1.911210   -1.945245   -0.403716
O     -2.381095    2.732935    0.131997
Cl     0.690775    0.000000    0.000000
H      2.527891    1.291456   -2.789537
H      1.072740    0.702993   -1.811087
H      2.197813    1.968467   -1.155284
H     -3.303413   -3.526736   -0.440338
H     -1.582696   -3.948291   -0.805317
H     -2.559603   -3.061590   -2.038715
H     -2.037670    3.832277    1.836079
H     -3.765081    3.687697    1.306230
H     -2.975114    2.280906    2.091588
H      3.939090    0.525467   -0.773252
H      3.434065   -0.681140   -2.009302
H      4.628861   -1.726312    1.955922
H      5.110984   -0.654923    0.601631
H      3.134445   -0.242519    2.788699
H      3.863022    1.002270    1.681538
H     -5.395340    0.360234   -2.267782
H     -4.162821   -1.771099   -1.845525
H      2.768088   -2.537990    0.965721
H      3.792053   -2.416625   -0.480645
H      0.758225   -0.143009    2.664077
H      1.179167   -1.712690    1.933229
H      1.854530    1.030481    0.657559
H      0.001952    1.645399    2.051087
H     -0.690775    0.000000    0.000000
