59

C     -2.781281    3.810237   -1.339996
C     -3.822729   -2.651345   -2.916231
C      6.889581    0.650860    1.653430
C     -5.579645   -0.625041    2.809251
C     -2.981884    2.311458   -1.421645
C      5.128509   -3.203001    1.442382
C      3.830787   -3.294373    0.989543
C      5.689917   -1.930705    1.504912
C      2.804742    1.446775    0.110741
C      1.759784    1.839305   -0.925078
C     -0.875070   -0.468147    0.119824
C     -0.585846    2.021481   -1.170562
C     -4.083566   -1.081749   -1.106985
C     -1.927248    1.606921   -0.575607
C      2.746981   -0.032737    0.250228
C     -2.038175    0.107520   -0.700604
C     -3.323340   -0.418572   -0.253606
C      3.098251   -2.189148    0.608773
C      0.393750   -0.045646   -0.587426
C      4.988858   -0.814470    1.134178
C      3.697935   -0.932033    0.686596
C      1.592123   -0.724463   -0.086712
C     -3.840833   -0.257991    1.109315
N      1.854553   -2.005934    0.145497
N      0.490456    1.397563   -0.444150
O     -3.137280    0.366976    1.934733
O     -3.710336   -1.306729   -2.436511
O      5.578456    0.424148    1.210410
O     -5.060284   -0.764737    1.509635
H     -3.716036    4.263556   -1.775165
H     -2.754167    4.157644   -0.272533
H     -1.951306    4.178712   -1.939935
H     -3.172027   -3.335910   -2.301993
H     -4.877021   -2.996369   -2.914695
H     -3.374644   -2.681575   -3.950899
H      7.586322    0.396042    0.839805
H      7.097395    0.056448    2.584390
H      7.042209    1.709544    1.929097
H     -5.067938   -1.246011    3.560006
H     -6.684284   -0.817331    2.767637
H     -5.491228    0.464272    3.086651
H     -4.011221    2.117715   -1.037559
H     -2.863850    2.032301   -2.484031
H      5.718767   -4.051299    1.744625
H      3.350749   -4.256363    0.922452
H      6.702485   -1.805966    1.852427
H      3.805695    1.815503   -0.163878
H      2.447825    1.860309    1.089627
H      1.971455    1.276852   -1.875475
H      1.790745    2.926374   -1.144554
H     -0.960181   -1.548982    0.247747
H     -0.903672    0.052159    1.111720
H     -0.506646    3.126951   -0.955892
H     -0.512735    1.795751   -2.238463
H     -5.049647   -1.481106   -0.783309
H     -1.954343    1.965651    0.453701
H     -1.847292   -0.180540   -1.732485
H      0.213262   -0.236654   -1.679238
H      1.174165   -2.794099   -0.011835
