27

C     -2.502464   -0.430416   -1.217195
C     -3.146083   -0.938969    1.068443
C      4.427076   -0.974840    0.239020
C     -1.191426    1.773084   -0.154702
C      1.122506    1.015967    0.460220
C     -0.207053    0.639729   -0.163482
C     -2.202994   -0.106142    0.217695
O      3.103262    0.622039   -1.436657
O      2.412435   -1.750191   -1.309962
O     -2.329552    1.255230    0.478301
O      1.809816   -0.174227    0.721642
O     -0.878714   -0.334749    0.569161
S      2.866106   -0.562575   -0.526998
H     -1.625232   -0.725571   -1.808697
H     -2.961615    0.440812   -1.727233
H     -3.237259   -1.268273   -1.322651
H     -4.175232   -0.519767    0.965586
H     -2.811579   -0.987621    2.113036
H     -3.097791   -1.978206    0.657057
H      5.143264   -1.333434   -0.512587
H      4.266684   -1.752155    1.027613
H      4.817960   -0.033115    0.679906
H     -1.479474    1.985399   -1.197066
H     -0.833456    2.662341    0.382910
H      1.679017    1.579753   -0.333077
H      0.998097    1.625504    1.363175
H      0.033699    0.270392   -1.183786
