21

C     -1.763994    1.190225    0.587686
C     -0.553194    1.354997    0.053935
C     -2.286785   -0.162519    0.341471
C      1.188905   -0.376351    0.011598
C      2.252305    0.697132   -0.112432
C     -0.095360    0.127327   -0.627673
C     -1.180924   -0.879106   -0.375663
O      3.445765    0.274393    0.461688
O     -0.692989   -1.970167    0.365017
H     -2.313039    1.965757    1.145928
H     -0.003271    2.289484    0.131197
H     -3.218303   -0.091073   -0.278381
H     -2.548660   -0.655476    1.302317
H      1.572036   -1.274975   -0.498531
H      0.985697   -0.633283    1.050839
H      1.891962    1.593997    0.422714
H      2.415630    0.945776   -1.169958
H      0.091022    0.302502   -1.697680
H     -1.524976   -1.263220   -1.359984
H      3.576969   -0.674118    0.154846
H     -1.238796   -2.761301    0.091065
