39

C      2.702333    1.827242   -1.083973
C      4.216015    0.072325   -0.427095
C     -1.739049   -2.920709    0.092614
C     -1.475149    3.028019    0.353093
C      0.391376   -1.879281    0.647835
C     -2.852393    0.983028    0.805166
C      1.598353   -1.367885   -0.108542
C     -2.699550   -0.479553    0.447988
C      0.528168    0.840053    0.216179
C      2.887990    0.713875   -0.437733
C     -0.748815   -1.846567   -0.329004
C     -1.820831    1.675895   -0.058605
C      1.774798    0.077100    0.300048
C     -1.464086   -0.565496   -0.407411
C     -0.735746    0.660513   -0.050803
H      3.569448    2.264300   -1.615552
H      1.766833    2.360977   -1.148478
H      5.018006    0.816903   -0.703162
H      4.315224   -0.749262   -1.159237
H      4.465439   -0.235784    0.612432
H     -1.714770   -2.997376    1.193458
H     -1.382691   -3.885333   -0.332085
H     -2.759602   -2.691792   -0.276525
H     -2.276665    3.738702   -0.004204
H     -0.535245    3.452847    0.035979
H     -1.521156    3.107744    1.472208
H      0.233290   -1.301472    1.557067
H      0.543924   -2.948597    0.933172
H     -2.539428    1.168978    1.867489
H     -3.874841    1.358345    0.619650
H      1.465276   -1.439870   -1.211973
H      2.460711   -1.983540    0.233185
H     -2.654819   -1.106062    1.353383
H     -3.590475   -0.787187   -0.119392
H      0.705020    1.907598    0.469259
H     -0.359534   -2.124443   -1.311437
H     -2.230031    1.674249   -1.108811
H      2.156511    0.011150    1.371861
H     -1.823841   -0.429634   -1.465738
