39

C      3.238082    1.725569   -0.531375
C     -3.489113    1.830960    0.609450
C     -2.852559    0.617744    0.350999
C      2.781665   -1.869132   -0.279624
C      3.323221   -0.598541   -0.834528
C     -1.396411    2.926967    0.755752
C      0.740440    1.725884    0.439020
C      0.577700   -3.035264   -0.469119
C     -3.008107   -3.486465   -0.144373
C      1.314720   -1.905656   -0.253796
C     -0.717424    1.714099    0.495763
C     -2.767569    2.988794    0.812775
C     -1.468813    0.580607    0.298587
C      1.435986    0.456239    0.241975
C     -0.800677   -3.025303   -0.436824
C      0.603159   -0.735914    0.001591
C     -0.778384   -0.676091    0.043584
C     -1.486459   -1.841407   -0.179437
N      2.459624    0.534051   -0.791342
O     -3.369647    4.215565    1.072956
O     -1.778161   -3.998221   -0.614505
O     -2.837328   -2.087613   -0.200294
H      4.329964    1.527060   -0.545193
H      3.023242    2.168893    0.464796
H      2.995170    2.544001   -1.268111
H     -4.567551    1.895703    0.657292
H     -3.508327   -0.208471    0.211182
H      3.132497   -2.732875   -0.914695
H      3.239615   -2.031150    0.718790
H      4.342192   -0.372944   -0.401792
H      3.550577   -0.777128   -1.927661
H     -0.812133    3.821517    0.911953
H      1.084208    2.243113    1.389740
H      1.037436    2.427454   -0.381908
H      1.062478   -3.979770   -0.673321
H     -3.285396   -3.838222    0.852721
H     -3.780480   -3.738832   -0.917720
H      2.021592    0.215701    1.182910
H     -3.589026    4.779078    0.253782
