28

C      2.671136   -0.591439   -1.000633
C     -2.895092   -1.263639    0.279078
C      1.516784   -0.717254    1.139512
C      0.039278   -0.506530    1.406054
C     -2.307317    0.899987   -0.611423
C      1.752035    0.180395   -0.044882
C     -1.890889   -0.255519   -0.142963
C     -0.478205   -0.574339   -0.026469
C      0.437855    0.400655   -0.717747
C     -0.037930    1.824507   -0.639932
O      0.183356    2.411210    0.589046
O     -1.413508    1.879052   -1.020506
H      2.068301   -1.425739   -1.424509
H      3.098339    0.060444   -1.767498
H      3.456214   -1.060584   -0.375613
H     -2.643468   -2.243613   -0.215404
H     -3.923568   -1.002065    0.006547
H     -2.841315   -1.441436    1.380509
H      1.631206   -1.787055    0.837514
H      2.144176   -0.455937    2.009536
H     -0.344954   -1.340273    2.024298
H     -0.125819    0.477049    1.868001
H     -3.371629    1.076371   -0.673175
H      2.208291    1.124139    0.273612
H     -0.201133   -1.589557   -0.394801
H      0.478689    0.123445   -1.789538
H      0.505148    2.407342   -1.426061
H      0.284020    3.390384    0.457445
