55

C      1.354915   -2.293831   -2.013051
C     -1.442050   -2.850631   -0.600308
C      7.315664    1.398240   -0.289387
C     -6.173938    3.099319   -1.482467
C      3.765818   -0.309832    3.587585
C     -5.477539   -0.718091    2.493456
C      3.313810    0.554583   -1.299281
C     -2.460174    1.152138   -1.018998
C      4.642942    0.842440   -1.001838
C     -3.684354    1.808205   -1.187741
C      2.873449   -0.013033    0.950460
C     -3.376425   -0.064347    0.778211
C      0.750989   -1.653648   -0.803398
C     -0.776132   -1.558125   -0.915657
C      2.416404    0.127516   -0.342945
C     -2.293359    0.205956   -0.030861
C      5.089785    0.698858    0.293351
C     -4.741991    1.501692   -0.349730
C      4.187936    0.271863    1.243586
C     -4.597306    0.549631    0.655379
C      1.036135   -0.153217   -0.742195
C     -0.996083   -0.494296    0.153668
O      6.395683    0.961898    0.683893
O     -5.974344    2.127619   -0.480692
O      4.639195    0.123376    2.568910
O     -5.682484    0.267695    1.478534
O      0.081957    0.353461    0.104204
H      1.493223   -3.373835   -1.799151
H      0.691763   -2.182843   -2.891017
H      2.373330   -1.887382   -2.195909
H     -0.734124   -3.671116   -0.853654
H     -1.700514   -2.909571    0.474460
H     -2.325222   -2.992896   -1.263606
H      6.957914    2.266688   -0.871353
H      8.234911    1.717623    0.278810
H      7.560378    0.595921   -1.009398
H     -7.140102    3.624946   -1.265238
H     -6.287930    2.606240   -2.489777
H     -5.329819    3.818748   -1.500305
H      3.459230   -1.362776    3.486846
H      2.816105    0.289895    3.582540
H      4.261073   -0.159015    4.559109
H     -4.606134   -0.337020    3.090835
H     -6.371645   -0.869255    3.112368
H     -5.114937   -1.631513    1.990173
H      2.966368    0.672322   -2.336915
H     -1.614772    1.377044   -1.666344
H      5.338743    1.176071   -1.755505
H     -3.781151    2.545606   -1.973374
H      2.152493   -0.349838    1.687489
H     -3.264318   -0.804121    1.559149
H      0.968231   -2.161715    0.144114
H     -1.072294   -1.134610   -1.898541
H      0.833809    0.231426   -1.753273
H     -0.953112   -1.030459    1.124779
