55

C      4.303860    0.221969    2.145059
C      3.902565    0.248275    0.671612
C     -0.989850   -3.931577   -1.008003
C     -1.894910    3.435849   -0.538677
C     -1.182359   -2.579541   -1.176695
C      0.165333   -4.392141   -0.426869
C      0.642873    0.653735    1.411112
C     -2.491463    2.571711    0.529473
C     -0.334145    1.806990    1.341272
C      0.122100    0.225264   -2.240183
C     -2.318371    0.482434    1.736695
C     -1.410623    2.639753   -1.723024
C     -1.192851    0.629554   -2.843298
C     -2.727082   -0.687599    0.913464
C     -0.248848   -1.638455   -0.780334
C      1.122400   -3.475456   -0.019377
C      0.963301    0.226168    0.036057
C      3.144095   -1.003690    0.378488
C      0.939651   -2.111391   -0.185055
C     -1.593666    1.338845    0.709900
C     -0.205414   -0.157133   -0.807403
C     -1.477006    0.528888   -0.524864
N     -1.843660    1.277801   -1.729035
N      1.753039   -1.000566    0.097955
O      2.265831   -3.951750    0.556750
O      3.861693   -2.046543    0.406229
O     -2.488857   -0.420338   -0.396500
H      5.159120   -0.477898    2.284456
H      3.476049   -0.093317    2.779846
H      4.561358    1.257793    2.404770
H      4.869927    0.239119    0.079246
H      3.332332    1.115953    0.376066
H     -1.743166   -4.627584   -1.328149
H     -2.649119    4.217732   -0.823181
H     -1.025277    3.993689   -0.136489
H     -2.090726   -2.269506   -1.644764
H      0.280874   -5.469740   -0.307945
H      0.279845   -0.188722    2.029680
H      1.546015    1.034982    1.916066
H     -2.504253    3.104662    1.506074
H     -3.523691    2.262360    0.237994
H     -0.547086    2.111079    2.385934
H      0.166924    2.639291    0.825568
H      0.835433    1.071569   -2.251272
H      0.559318   -0.642761   -2.802572
H     -1.646369    0.173886    2.571665
H     -3.167788    1.003847    2.221409
H     -1.878979    3.112859   -2.627258
H     -0.333034    2.685426   -1.867984
H     -0.952186    1.362424   -3.655180
H     -1.760542   -0.175279   -3.298759
H     -3.847728   -0.789051    1.035359
H     -2.327831   -1.652687    1.293138
H      1.587961    0.981793   -0.481818
H      2.554980   -4.872975    0.743352
