49

C     -2.170050    3.563575    0.848292
C     -0.117968    1.847815    2.321712
C      4.727491   -3.334563    1.404770
C      4.004948    1.813021   -0.670664
C      0.903326   -1.701943    1.251205
C      2.180077   -2.222572    1.292614
C     -3.186353    1.436196    0.172774
C      1.736455    0.278912    0.296497
C     -3.399526    0.090539   -1.854059
C     -1.060768   -1.235728   -1.333248
C     -2.792590   -2.617533   -4.225669
C     -2.205780    2.050511    1.089647
C     -0.805205    1.539093    1.008328
C      0.647136   -0.426606    0.747572
C     -2.676179    0.400336   -0.720774
C     -1.505966   -0.265815   -0.463586
C      3.237525   -1.467859    0.825242
C      3.022401   -0.211096    0.323740
C     -2.974353   -0.883335   -2.748839
C     -1.784952   -1.552437   -2.476615
C     -0.730043    0.055535    0.738615
O      4.489638   -2.058579    0.899794
O      4.101721    0.514110   -0.134464
O     -3.469926   -1.393904   -3.928112
O     -1.588350   -2.454875   -3.501074
H     -2.954463    4.061912    1.429706
H     -1.166978    3.942625    1.153777
H     -2.348860    3.763017   -0.244061
H     -0.821491    2.331628    3.053543
H      0.226724    0.917838    2.835915
H      0.713380    2.577188    2.191696
H      4.021898   -4.041446    0.876979
H      4.432414   -3.375240    2.473586
H      5.727990   -3.721220    1.217600
H      5.044309    2.135359   -0.908521
H      3.461800    1.805998   -1.651217
H      3.576900    2.551423    0.011319
H      0.074025   -2.321718    1.629332
H      2.334737   -3.235047    1.699388
H     -4.071935    1.001285    0.724934
H     -3.666345    2.220659   -0.482997
H      1.544628    1.268041   -0.095251
H     -4.335959    0.598196   -2.093246
H     -0.133437   -1.733532   -1.088175
H     -3.422666   -3.431116   -3.868701
H     -2.632441   -2.630658   -5.325617
H     -2.596095    1.943588    2.137341
H     -0.320133    2.046455    0.142062
H     -1.270712   -0.438037    1.599792
