49

C     -2.076701   -3.585699    0.118479
C     -0.331506   -2.376318    2.079718
C      5.064479    2.590117   -1.360494
C      4.113150   -2.345365    1.080880
C      1.175003    1.447262   -0.182915
C      2.460063    1.818429   -0.568760
C     -2.003709   -1.449669   -1.183602
C      1.995256   -0.596567    0.625611
C     -3.283516    0.633885   -1.464519
C     -1.857785    1.831322    0.489970
C     -4.425445    4.019602   -0.849831
C     -1.876152   -2.115992    0.206249
C     -0.552006   -1.702411    0.747585
C      0.913848    0.250573    0.414136
C     -2.293361   -0.047024   -0.835850
C     -1.537483    0.513668    0.163255
C      3.509933    0.976929   -0.354721
C      3.289213   -0.242008    0.245754
C     -3.602347    1.954523   -1.136153
C     -2.860611    2.539432   -0.137261
C     -0.450345   -0.195312    0.861687
O      4.805597    1.345319   -0.741189
O      4.372035   -1.111773    0.467267
O     -4.546138    2.830706   -1.626092
O     -3.343574    3.834893    0.021201
H     -2.665675   -3.936470    1.000672
H     -1.119091   -4.134732    0.019253
H     -2.729792   -3.799087   -0.765337
H      0.328897   -3.250131    1.949628
H     -1.311710   -2.703377    2.485103
H      0.156805   -1.636169    2.760894
H      6.036837    2.609906   -1.872788
H      4.300673    2.786514   -2.151723
H      4.984215    3.438505   -0.636383
H      3.574913   -2.236935    2.048424
H      3.425637   -2.962132    0.434041
H      5.038396   -2.913629    1.252890
H      0.383621    2.138265   -0.375414
H      2.593857    2.789158   -1.039645
H     -1.021924   -1.481600   -1.695694
H     -2.806609   -1.937595   -1.751908
H      1.891227   -1.564159    1.094673
H     -3.895424    0.194402   -2.267626
H     -1.298438    2.339031    1.283912
H     -4.244214    4.902828   -1.467238
H     -5.347414    4.198475   -0.243273
H     -2.667525   -1.682273    0.884953
H      0.245317   -2.024888    0.030726
H     -0.510479    0.047571    1.941458
