55

C      0.766295    2.837692    0.351452
C     -0.390925    1.007839   -2.741996
C     -6.976924   -0.067079   -1.472595
C      7.048497    0.384423    1.054160
C     -3.558214   -2.989422    1.891901
C      3.035122   -3.167149    2.457937
C     -3.100555    1.232847   -0.766547
C      3.277441    0.916606   -0.648505
C     -4.383567    0.782329   -0.986601
C      4.511928    0.697431   -0.056041
C     -2.656495   -0.581281    0.637205
C      2.493587   -0.991197    0.573922
C     -0.287517    2.110779   -0.496471
C      0.491837    1.360813   -1.559851
C     -2.203096    0.580269    0.039518
C      2.253619    0.058543   -0.327694
C     -4.815493   -0.370794   -0.385829
C      4.741594   -0.332551    0.826703
C     -3.943698   -1.053090    0.429775
C      3.721400   -1.199794    1.155805
C     -0.844623    1.012620    0.302808
C      0.890130    0.136751   -0.849648
O     -6.111756   -0.797438   -0.627371
O      6.009003   -0.518789    1.404683
O     -4.401048   -2.219990    1.029515
O      3.993235   -2.218901    2.044383
O      0.007835   -0.073752    0.205370
H      1.580898    3.238181   -0.283049
H      0.305761    3.678031    0.907479
H      1.211171    2.077756    1.017614
H      0.273768    0.749126   -3.579088
H     -0.984123    1.908959   -3.028777
H     -1.011691    0.155034   -2.464445
H     -6.575158   -0.037836   -2.526900
H     -7.969508   -0.534607   -1.493717
H     -7.063096    0.990448   -1.151017
H      8.003306    0.013513    1.450517
H      6.761611    1.375160    1.480271
H      7.114929    0.443265   -0.056400
H     -2.552819   -3.131608    1.397357
H     -4.007986   -3.985998    2.074788
H     -3.361125   -2.473546    2.844698
H      2.926456   -3.941912    1.688203
H      3.277477   -3.596759    3.455737
H      2.019746   -2.693704    2.596259
H     -2.787412    2.132725   -1.245407
H      3.116223    1.730272   -1.341095
H     -5.059120    1.343559   -1.640513
H      5.295363    1.392445   -0.331433
H     -2.023656   -1.164978    1.288801
H      1.706458   -1.688598    0.849834
H     -0.943891    2.876062   -0.875649
H      1.253925    2.033998   -1.928671
H     -0.804562    1.322405    1.390636
H      0.729438   -0.749109   -1.534457
