37

C      2.552110   -0.659656    1.678877
C      4.003346   -0.053434   -0.276650
C     -1.662699    2.142911    1.061763
C     -0.623168    2.245502    0.273369
C      1.649747    0.816524   -0.117275
C      2.048762   -1.480569   -0.556074
C     -3.743311   -0.575531    1.216486
C     -1.315278    0.941849   -1.880104
C     -2.717694   -0.187494    0.201275
C     -2.038548    0.919995    0.379586
C      0.289611    0.027709   -0.113790
C      0.662451   -1.014967   -1.042053
C     -2.704801   -0.933470   -1.067962
C      2.607181   -0.299175    0.210926
C     -0.788090    1.031945   -0.534839
O     -4.983396   -0.650928    0.583790
O      0.219869   -1.570860   -2.011249
O     -3.362936   -1.977147   -1.156716
O     -1.923938   -0.372726   -2.086255
H      3.452264   -1.276555    1.917940
H      2.509016    0.241691    2.334866
H      1.664549   -1.305193    1.826822
H      3.962360    0.372693   -1.282035
H      4.514264   -1.060055   -0.299919
H      4.579186    0.641447    0.371165
H     -2.109357    2.708319    1.897868
H      0.150964    3.028599    0.237136
H      1.865225    1.188301   -1.130407
H      1.620702    1.604120    0.651000
H      2.632165   -1.633762   -1.481975
H      1.967991   -2.369764    0.061848
H     -3.766393    0.143937    2.050583
H     -3.477599   -1.600633    1.541245
H     -2.081859    1.725882   -2.041388
H     -0.552041    1.062573   -2.666357
H      0.095193   -0.249542    0.914293
H     -5.195848   -1.572535    0.334211
