38

C      2.528984   -0.567227   -1.156990
C      2.657784   -0.362271    1.253532
C     -0.914627    1.166371    1.332087
C      1.068455    1.800290   -1.340259
C      1.867518    1.504902   -0.081872
C     -0.373078    1.606897   -1.000879
C     -1.287554   -1.979814    1.279200
C     -3.007573    0.032204   -1.308567
C     -2.172398   -1.375773    0.248146
C     -1.911989   -0.233632   -0.367789
C      0.026040   -1.266826    1.344873
C      0.410999   -0.514800    0.120088
C     -3.444180   -1.919149   -0.250805
C      1.784983   -0.022292    0.075283
C     -0.673867    0.523404   -0.041501
O      0.653960   -1.350869    2.349570
O     -4.025117   -2.982568    0.089152
O     -3.921176   -1.039827   -1.192435
H      3.231687    0.158224   -1.563057
H      3.070772   -1.497173   -0.843571
H      1.757962   -0.911294   -1.879363
H      2.788028   -1.450803    1.407749
H      2.397204    0.192162    2.173279
H      3.692322    0.008761    0.982576
H     -1.894554    0.923104    1.740991
H     -0.146717    0.828811    2.059209
H     -0.834832    2.272137    1.278402
H      1.242218    2.857240   -1.658969
H      1.424521    1.087377   -2.115396
H      2.947544    1.712296   -0.316001
H      1.504273    2.031091    0.798864
H     -0.920529    1.493174   -1.983684
H     -0.743971    2.607431   -0.622538
H     -1.776984   -2.046054    2.266076
H     -1.026027   -3.045371    1.009976
H     -3.541167    0.953338   -0.991584
H     -2.691098    0.059106   -2.370488
H      0.252185   -1.252575   -0.723306
