46

C      2.194247    2.568137   -2.119075
C      2.458361   -2.122581    0.941125
C      3.821395   -1.891366    1.077804
C     -2.236893   -2.244847   -0.519040
C     -1.306045   -1.872987   -1.620721
C     -4.050947   -0.861099    0.214574
C     -2.403248    1.125169    1.214659
C     -5.943779    2.014393    1.432609
C      5.682551    1.150602    0.194715
C     -2.683977   -0.973676    0.139700
C      1.694624   -1.156255    0.373239
C     -1.857616    0.004652    0.632106
C      4.374335   -0.688640    0.636100
C     -4.607568    0.259301    0.797206
C     -3.772103    1.244477    1.293013
C      2.242199    0.033194   -0.063498
C      0.203526   -1.272244    0.163596
C     -0.364840    0.030494    0.627109
C      3.603788    0.295709    0.058916
C      1.303164    1.010788   -0.668755
N      0.012884   -1.537983   -1.228731
O      1.998198    2.216567   -0.783993
O      5.680121   -0.190990    0.643250
O     -5.922922    0.646829    1.012713
O     -4.594911    2.220611    1.804834
O      4.382857    1.389127   -0.293904
O      0.110679    1.145990   -0.007011
H      2.742822    3.519386   -2.159369
H      1.227742    2.693281   -2.663771
H      2.813583    1.765471   -2.571532
H      1.986890   -3.036706    1.267809
H      4.463546   -2.651336    1.531739
H     -3.142298   -2.696632   -0.975305
H     -1.834485   -2.970995    0.188764
H     -1.241876   -2.755770   -2.320746
H     -1.757474   -1.059452   -2.220398
H     -4.680571   -1.664159   -0.190217
H     -1.729107    1.891851    1.600209
H     -6.648215    2.164198    2.276532
H     -6.157802    2.666600    0.580088
H      5.943276    1.865812    1.023917
H      6.398209    1.273368   -0.658891
H     -0.131381   -2.060357    0.842437
H     -0.076596    0.130320    1.715251
H      1.059690    0.597629   -1.691206
H      0.745965   -2.215879   -1.527852
