43

C      1.316776    0.875761    0.988977
C      4.899510   -0.407856   -0.721195
C      3.427328   -1.682986    0.682914
C     -1.903066   -3.436998   -0.116727
C     -1.613028    3.894541   -0.767153
C     -3.189765   -3.437256    0.371505
C     -2.892509    4.093242   -0.301303
C     -1.288794   -2.234839   -0.431608
C     -1.097977    2.631370   -0.865263
C     -3.814442   -2.240703    0.526940
C     -3.629789    2.995581    0.058928
C      2.524219   -0.109722   -0.891498
C      0.136388    0.131215   -1.105096
C      1.201839   -0.144563   -0.121967
C     -1.893563   -1.000070   -0.285688
C     -1.809004    1.508250   -0.513566
C     -3.182107   -1.056168    0.206498
C     -3.082019    1.736638   -0.051821
N      3.634004   -0.441076   -0.027725
N     -1.215786    0.198273   -0.635002
S     -4.140096    0.402393    0.460296
H      0.519454    0.770166    1.755234
H      1.272811    1.917207    0.633473
H      2.276481    0.782296    1.539089
H      5.677516   -0.150922    0.016896
H      5.121394   -1.339521   -1.275924
H      4.861734    0.432336   -1.454671
H      2.793152   -2.331201    0.045853
H      2.919953   -1.521682    1.655262
H      4.381825   -2.212392    0.885892
H     -1.409408   -4.389978   -0.239194
H     -1.022840    4.781369   -1.055956
H     -3.686535   -4.369220    0.623500
H     -3.308857    5.105411   -0.221473
H     -0.291036   -2.341840   -0.814227
H     -0.090367    2.579789   -1.231116
H     -4.839255   -2.257589    0.916764
H     -4.633788    3.160705    0.423947
H      2.524308   -0.808059   -1.740859
H      2.725716    0.902070   -1.304639
H      0.481361    0.885939   -1.810358
H      0.139772   -0.759713   -1.824687
H      1.198491   -1.110198    0.401412
