23

C      2.278825   -0.509824    0.529802
C     -0.239266    1.642091   -0.767527
C     -1.428805    0.926862   -0.249995
C      0.903479   -0.047689    0.145693
C     -1.409232   -0.552549   -0.393688
C     -0.008089   -1.145622   -0.292333
O      2.975493    0.633276    0.981133
O     -1.705978    1.324178    1.079584
O     -2.122068   -1.088886    0.703919
O      0.308249   -1.584788   -1.594264
O      0.910003    0.907553   -0.857990
H      2.192369   -1.193710    1.380594
H      2.862773   -0.912889   -0.299506
H     -0.022613    2.512398   -0.080760
H     -0.429309    2.128277   -1.763389
H     -2.321846    1.302719   -0.832959
H      0.449063    0.404612    1.071761
H     -1.941999   -0.892676   -1.291527
H      0.023107   -2.027182    0.373414
H      2.967096    0.678244    1.967828
H     -2.489476    0.863226    1.422001
H     -2.975676   -1.471024    0.446832
H      1.223898   -1.896598   -1.678623
