28

C      2.786023    1.789068   -0.456598
C      1.451239    1.908853   -0.045298
C     -1.009966   -0.216579    1.405917
C     -2.192226   -1.319699   -0.469388
C     -1.712908    0.973040   -0.691890
C      0.245096   -1.562090   -0.211858
C     -1.045781   -1.417166    0.528862
C     -0.774709    0.986187    0.478716
C      3.217217    0.527059   -0.772165
C      0.627686    0.828803    0.036130
C      2.367352   -0.540303   -0.681192
Br     5.035471    0.334914   -1.336331
N     -2.761949    0.010653   -0.451925
N      1.064866   -0.398403   -0.276189
O      2.785569   -1.684730   -0.975400
H      3.420811    2.644087   -0.516002
H      1.083614    2.898313    0.210839
H     -0.105570   -0.274473    2.045870
H     -1.866567   -0.076175    2.059232
H     -2.977123   -2.037592   -0.224916
H     -1.802591   -1.490591   -1.497813
H     -2.204203    1.960191   -0.840912
H     -1.196701    0.661647   -1.640669
H      0.838089   -2.356353    0.304861
H      0.062564   -1.960843   -1.250111
H     -1.243263   -2.298485    1.183015
H     -0.937426    1.916650    1.061077
H     -3.154613    0.194017    0.499798
