44

C     -1.532637   -1.468245    2.818285
C     -3.290816    0.843728    1.366184
C     -3.544755   -1.421835    0.451667
C      3.974150   -1.226205   -1.386515
C      4.762844    0.806584    0.694315
C      4.129481    1.779052   -2.079871
C     -0.776953   -1.012370    1.856738
C     -1.954014   -0.815258   -1.658687
C     -0.971694   -1.293499   -0.607528
C      0.739920    0.793216   -0.031432
C      1.902233    0.675342   -0.328927
C     -1.531325    1.409477   -0.813273
C     -2.591897    0.376182   -0.991512
C     -2.701788   -0.176163    0.455090
C     -1.227360   -0.424038    0.632096
C     -0.669098    0.957450    0.344228
O     -0.822778    1.770138    1.447838
Si     3.668049    0.501766   -0.813309
H     -2.600495   -1.433383    2.757930
H     -1.124367   -1.909062    3.736006
H     -4.340964    0.532613    1.612055
H     -3.398651    1.847078    0.902750
H     -2.765216    0.882219    2.338031
H     -3.006556   -2.354487    0.605159
H     -4.357134   -1.298333    1.178979
H     -4.073717   -1.437626   -0.550035
H      3.319839   -1.932132   -0.805453
H      3.682920   -1.313561   -2.446123
H      5.011671   -1.531210   -1.169409
H      5.760116    0.429528    0.442604
H      4.301542    0.194592    1.521447
H      4.729067    1.863154    1.008794
H      3.297439    2.036055   -2.734329
H      4.964272    1.439234   -2.729956
H      4.444717    2.729767   -1.557251
H      0.309892   -1.095797    2.021303
H     -2.652583   -1.584085   -1.992067
H     -1.402611   -0.431869   -2.555088
H      0.062837   -1.153533   -0.976707
H     -1.079571   -2.359209   -0.357631
H     -1.899953    2.440467   -0.704966
H     -0.865891    1.344452   -1.722203
H     -3.534776    0.692577   -1.384974
H     -0.343388    1.327229    2.205745
