68

C     -1.165322   -0.346878   -3.097830
C      1.059653    0.528367   -3.776596
C     -4.791050    2.035537    2.019444
C     -1.896995    0.116192   -1.825143
C      2.377453    0.786742   -3.512793
C     -6.113861    2.195719    1.663779
C     -7.133397   -1.285648    0.910552
C      6.567577   -0.027570    1.521940
C      8.500966    0.932867    0.323435
C     -7.328616   -1.373786   -0.582143
C      7.458852   -1.225106    1.852265
C      9.271552   -0.333923    0.721187
C     -4.961450   -0.292120    1.667624
C     -0.036395   -1.050559   -0.583337
C      2.153065   -0.141852   -1.339385
C     -1.894835    0.536964    1.133278
C      4.846400    0.385454   -0.803968
C      0.260216   -0.069565   -2.828564
C     -4.180828    0.780067    2.029278
C     -6.304413   -0.131497    1.306023
C      0.801711   -0.403005   -1.618042
C     -1.507971   -0.911706   -0.773320
C      2.939269    0.453923   -2.289103
C     -6.889168    1.115212    1.301964
C     -2.751588    0.649287    2.407303
C      6.298238    0.777278   -0.803072
N     -2.173381   -0.693322    0.466377
N      7.113538    0.564413    0.333511
O     -7.942928   -0.281176   -1.141011
O     -8.224656    1.292686    0.944914
O     -2.502458   -0.394878    3.287608
O      6.731855    1.299086   -1.865996
O      8.765256   -0.798407    1.911094
O      4.263716    0.719610   -2.039229
H     -1.499500    0.283053   -3.966245
H     -1.363827   -1.420008   -3.307907
H      0.609586    0.780519   -4.721189
H     -4.164193    2.878031    2.307532
H     -1.502179    1.126327   -1.602297
H     -2.964137    0.065396   -2.025077
H      3.028489    1.256080   -4.238759
H     -6.560069    3.187246    1.666260
H     -8.138136   -1.297941    1.376144
H     -6.636864   -2.218170    1.239429
H      6.696133    0.709018    2.366265
H      5.505645   -0.306102    1.446507
H      8.666726    1.681811    1.127513
H      8.870750    1.283261   -0.659770
H     -6.403670   -1.592327   -1.126324
H     -8.016283   -2.251608   -0.747809
H      7.162235   -1.579776    2.851949
H      7.270653   -1.968305    1.051025
H     10.340555   -0.112829    0.832778
H      9.128799   -1.077174   -0.107996
H     -4.495514   -1.276867    1.672509
H      0.293019   -0.771800    0.444839
H      0.239637   -2.150636   -0.645717
H      2.579123   -0.409776   -0.374644
H     -2.157480    1.434991    0.538734
H     -0.838289    0.544646    1.464955
H      4.312633    0.815355    0.064405
H      4.812554   -0.733363   -0.646765
H     -1.905654   -1.883136   -1.177342
H     -2.399460    1.575497    2.939755
H     -2.098765   -1.484114    1.135057
H     -8.910734   -0.389276   -1.289822
H     -8.617031    2.225446    0.954247
H     -2.454756   -0.102017    4.235716
