68

C     -0.179330    0.309090    1.492372
C      2.124209    0.835300    0.689922
C     -6.653527   -2.099282    0.872968
C     -1.066616   -0.845421    1.683930
C      3.227800    0.505362   -0.043029
C     -7.913483   -1.598859    1.160670
C     -7.698969    1.901010   -0.026173
C      8.047223    1.502841   -1.089349
C      7.994778    0.821285    1.291334
C     -6.660064    2.742806   -0.693885
C      9.515675    1.096373   -1.105462
C      9.295397    1.612401    1.150656
C     -6.039403   -0.000463   -0.007988
C      0.061043   -2.212462   -0.082356
C      2.265295   -1.503064   -0.746810
C     -3.349281   -0.819899   -0.257121
C      5.647691   -0.163930   -1.588756
C      1.024591   -0.046050    0.711923
C     -5.684354   -1.293612    0.275040
C     -7.289144    0.521693    0.268837
C      1.118782   -1.191054   -0.004099
C     -1.242481   -1.775276    0.527892
C      3.362421   -0.647478   -0.782864
C     -8.228449   -0.293843    0.859163
C     -4.356331   -1.879812   -0.019377
C      6.272422   -0.050837   -0.255271
N     -2.018007   -1.193101   -0.495515
N      7.423803    0.751651   -0.029782
O     -6.280046    2.199370   -1.916778
O     -9.511199    0.201355    1.155885
O     -4.002830   -2.626483    1.125230
O      5.737106   -0.706806    0.700986
O     10.087074    1.121123    0.140964
O      4.490436   -0.944112   -1.506095
H      0.159855    0.645344    2.518460
H     -0.666849    1.198101    1.031395
H      2.012182    1.727830    1.267022
H     -6.468225   -3.132080    1.133904
H     -2.084030   -0.459668    1.979350
H     -0.742427   -1.429358    2.595458
H      4.064678    1.230252   -0.046456
H     -8.683769   -2.224942    1.630843
H     -8.595506    1.877744   -0.681404
H     -8.006046    2.371120    0.929463
H      7.619134    1.282362   -2.088993
H      7.955344    2.588254   -0.834372
H      8.267718   -0.164880    1.698067
H      7.349503    1.361608    2.013434
H     -5.806865    3.003639   -0.051571
H     -7.168259    3.719960   -0.946912
H     10.087844    1.641996   -1.869237
H      9.511471    0.021895   -1.444636
H      9.082561    2.685707    1.078806
H      9.854655    1.464197    2.106890
H     -5.328474    0.650165   -0.462538
H     -0.090878   -2.458380   -1.157777
H      0.444840   -3.136695    0.395521
H      2.357582   -2.416184   -1.326064
H     -3.462158   -0.047355    0.548152
H     -3.695231   -0.260497   -1.186081
H      6.388116   -0.626187   -2.290611
H      5.348812    0.827044   -1.996057
H     -1.720233   -2.698847    0.904092
H     -4.518466   -2.554955   -0.888372
H     -1.509232   -0.682577   -1.235024
H     -6.981129    2.358702   -2.596784
H    -10.185634   -0.411225    1.588654
H     -4.313117   -2.181905    1.959276
