71

C      6.662150   -2.918273    0.276539
C     -2.799291    6.610965   -0.704882
C     -5.167353   -5.971390    2.279697
C      3.531241   -0.307529   -0.047312
C      2.862418   -0.634676    2.185334
C     -2.459542    2.780048    0.834028
C     -2.298193    1.851549   -1.329724
C      4.568180   -1.191270    0.135598
C      3.905572   -1.520821    2.352860
C     -2.566201    4.046519    0.327115
C     -2.408112    3.130745   -1.833706
C      1.968055    1.998378   -4.138049
C      2.747864    2.909530   -2.028553
C     -2.969312   -4.372197    1.903771
C     -4.204808   -2.732532    0.761072
C      2.635340    0.006344    0.974202
C     -2.323623    1.624386    0.058404
C      2.749560    2.895283   -3.382299
C      4.774317   -1.810014    1.324018
C     -2.539802    4.228851   -1.039050
C     -4.199393   -3.935640    1.377799
C      1.189306    1.102083   -3.384051
C     -1.837793   -3.611961    1.793446
C      1.963528    2.015806   -1.294793
C     -3.091404   -1.948583    0.632754
C      1.191905    1.117351   -2.016202
C     -1.857294   -2.436940    1.185701
C      0.250185    0.544731    0.197175
C     -0.778937   -0.122714    0.996647
C      0.423139    0.150389   -1.194132
C     -0.682419   -1.596528    1.018849
C      1.525716    0.956768    0.835605
C     -2.212967    0.312083    0.683682
O      3.564672    3.813451   -4.085534
O      0.439209    0.226014   -4.110996
O     -0.590852   -4.076962    2.354720
O     -0.009138   -0.888593   -1.732834
O      0.417445   -2.157150    0.873226
O      5.846581   -2.694816    1.425387
O     -2.650966    5.513756   -1.598929
O     -5.317872   -4.755608    1.537431
O      2.001773    2.074387    0.097916
O     -2.964609   -0.725458    0.050942
H      7.132544   -2.004167   -0.111991
H      5.984937   -3.281635   -0.556157
H      7.412953   -3.707414    0.513447
H     -3.606078    6.475771    0.017649
H     -2.947654    7.521735   -1.286042
H     -1.849645    6.680244   -0.108804
H     -4.787688   -5.660944    3.305449
H     -4.397128   -6.595740    1.830416
H     -6.120883   -6.474788    2.434771
H      3.482375    0.132010   -1.034324
H      2.212993   -0.462804    3.066771
H     -2.468699    2.600840    1.919938
H     -2.197941    0.986989   -1.970805
H      5.249059   -1.403219   -0.693825
H      4.098914   -2.041770    3.298322
H     -2.673462    4.912990    0.978247
H     -2.390252    3.307071   -2.920933
H      2.000715    2.030419   -5.193892
H      3.341278    3.607035   -1.463764
H     -2.944010   -5.319118    2.394578
H     -5.164582   -2.379398    0.333244
H     -0.283892    1.623912    0.033185
H     -0.651078    0.144072    2.105866
H      1.299467    1.334391    1.907699
H     -2.739814    0.444882    1.695729
H      4.539109    3.534551   -4.302993
H     -0.176870   -0.474690   -3.851816
H     -0.642940   -5.030986    2.735696
