71

C      5.571041    3.542862   -3.858669
C     -4.520008   -4.142468   -1.916291
C     -5.783506    4.592281    0.078654
C      3.998055    1.350581   -0.689933
C      2.568330    0.173854   -2.111334
C     -0.961279   -1.072629   -0.742090
C     -2.420144   -1.734482    0.967813
C      4.518396    2.074586   -1.732577
C      3.082517    0.899660   -3.195095
C     -1.637851   -1.846047   -1.662239
C     -3.099552   -2.508031    0.054290
C      1.431819   -4.307452    3.097274
C      1.761667   -3.923443    0.806848
C     -3.187657    3.645402   -0.149083
C     -3.544124    2.067309    1.568009
C      3.025256    0.394666   -0.837000
C     -1.303070   -0.976213    0.583581
C      1.535120   -4.815524    1.827734
C      4.059773    1.852222   -3.005417
C     -2.731974   -2.582824   -1.263181
C     -4.034157    3.086156    0.781770
C      1.549797   -2.928081    3.370515
C     -1.890885    3.210100   -0.299646
C      1.885455   -2.570439    1.011338
C     -2.246544    1.639332    1.409657
C      1.777891   -2.069525    2.311954
C     -1.386921    2.190725    0.481131
C      1.808280    0.297169    1.374951
C      0.429295    0.733149    1.326001
C      1.910789   -0.645336    2.559323
C      0.013351    1.732879    0.316822
C      2.537371   -0.367812    0.299656
C     -0.668183   -0.216125    1.624761
O      1.409933   -6.184443    1.622024
O      1.430561   -2.513838    4.671024
O     -1.020440    3.766531   -1.238434
O      2.101853   -0.166638    3.673317
O      0.663746    2.209782   -0.602164
O      4.571205    2.577850   -4.102955
O     -3.406471   -3.359102   -2.199595
O     -5.360661    3.541265    0.926384
O      2.111506   -1.672632   -0.009837
O     -1.734797    0.587568    2.216882
H      6.386402    3.167066   -3.204418
H      6.025380    3.840203   -4.836603
H      5.161135    4.482447   -3.415619
H     -5.043788   -4.378115   -2.885881
H     -5.247839   -3.517444   -1.340687
H     -4.294467   -5.095918   -1.418426
H     -5.065142    5.448000    0.097433
H     -5.799425    4.238927   -0.976528
H     -6.754839    5.018298    0.402180
H      4.351159    1.512454    0.339492
H      1.815119   -0.548709   -2.372140
H     -0.117313   -0.489342   -1.038508
H     -2.779510   -1.733195    1.992053
H      5.281170    2.807184   -1.527984
H      2.723544    0.728141   -4.204654
H     -1.327578   -1.890986   -2.707553
H     -3.975073   -3.106431    0.340263
H      1.253906   -4.960618    3.940083
H      1.843954   -4.313341   -0.192769
H     -3.526056    4.445227   -0.787335
H     -4.184565    1.618370    2.297742
H      2.450027    1.190031    1.691301
H      0.372292    1.411906    2.276057
H      3.563797   -0.624922    0.839760
H     -0.352549   -0.876442    2.452889
H      2.237203   -6.791418    1.655003
H      1.464828   -1.652015    5.094230
H     -1.276556    4.507798   -1.855555
