51

C     -2.602088   -5.037469    0.966151
C     -4.390003   -2.153326    2.447381
C     -0.696436    1.192179    1.433987
C      3.786365    4.101745   -1.045683
C      5.267973    2.613704    0.085819
C      2.764847    3.163067   -0.921284
C      4.239118    1.703069    0.195040
C     -1.281395    2.407313    1.703688
C     -1.836840    0.993942   -0.620638
C     -2.372778   -3.864219   -0.989283
C     -0.952147    0.474815    0.297501
C      5.045876    3.830248   -0.541198
C      2.964407    1.949043   -0.302277
C     -2.165287    2.927854    0.788465
C     -2.423913    2.208206   -0.355821
C     -1.422377   -2.747005   -0.898070
C     -1.311135   -1.946812    0.106455
C     -0.273415   -0.840976    0.101892
C     -2.297803   -1.808788    1.209848
C      0.350921   -1.753363   -2.092344
C      1.630446    0.099882   -1.152568
F     -2.778989    4.137998    1.006400
F     -3.304974    2.715151   -1.280655
N     -0.536784   -2.647402   -2.081426
N      0.550818   -0.841752   -1.036352
N      6.103863    4.782101   -0.659108
O     -1.960515   -1.035639    2.182419
O      1.167622   -1.702668   -3.253139
O      2.339425    0.064057   -2.176119
O      5.848483    5.962427   -1.283123
O      7.243367    4.567124   -0.211963
O     -3.208462   -4.260157   -0.059426
O     -3.513461   -2.359122    1.355496
O      1.931578    1.045041   -0.197056
H     -1.805438   -4.539845    1.496833
H     -2.276286   -6.022851    0.549819
H     -3.422086   -5.277803    1.675156
H     -3.805630   -2.126924    3.403855
H     -5.113639   -3.006325    2.522293
H     -4.928108   -1.190028    2.367669
H      0.011939    0.805179    2.175678
H      3.645222    5.046389   -1.523331
H      6.265633    2.410914    0.479879
H      1.776825    3.408714   -1.331775
H      4.390230    0.761300    0.673907
H     -1.047373    2.934797    2.615644
H     -2.018569    0.403986   -1.510204
H     -1.682230   -4.777573   -1.211061
H     -2.969152   -3.748242   -1.966863
H      0.338131   -1.034318    1.002915
H      0.734225   -1.987639   -4.143424
