42

C     -1.405708   -2.327606   -2.026614
C     -4.821135    1.220798    1.466268
C     -1.485984    1.338798    1.861437
C     -0.305343    0.810192    1.681439
C      3.647786   -0.676715   -0.107169
C     -2.123327    0.505075   -0.379018
C      1.705561    1.185289   -0.401098
C      2.093489   -2.224336    1.040735
C      4.922159    2.437183   -1.573463
C      2.382184   -0.966142    0.379237
C     -2.596477    0.794026    1.009094
C      1.398275   -0.037450    0.236565
C      3.969646    0.509910   -0.732883
C      2.964770    1.443244   -0.871290
C     -0.868224   -0.266646   -0.490271
C     -0.204322   -1.567794    1.407229
C     -1.195934   -2.263465    0.550765
C      0.031751   -0.274339    0.714672
N      0.921159   -2.463323    1.490704
N     -1.173891   -1.679662   -0.731572
O     -1.919786   -3.209975    0.928193
O     -3.642136    1.723656    0.918630
O      5.107734    1.059427   -1.300752
O      3.510565    2.557762   -1.527184
H     -2.100133   -3.149612   -1.843656
H     -0.474882   -2.760710   -2.438738
H     -1.760531   -1.579172   -2.740938
H     -5.587000    2.007109    1.355854
H     -5.128830    0.256273    1.002888
H     -4.671181    1.100948    2.577373
H     -1.629341    2.114407    2.580842
H      0.512477    1.185572    2.286053
H      4.400866   -1.439310    0.025032
H     -2.936640   -0.077974   -0.886940
H     -2.099233    1.480414   -0.945642
H      0.907992    1.890876   -0.495080
H      2.919722   -2.925102    1.122703
H      5.390718    2.991073   -0.740408
H      5.327575    2.723075   -2.563480
H     -3.006766   -0.109647    1.504880
H     -0.331876    0.073010   -1.400657
H     -0.645748   -1.409138    2.443553
