74

C     -5.345343    6.135333   -1.009588
C      8.071748    2.587096    0.852913
C      6.777029    3.042097    0.861727
C      8.279170    1.230310    0.707846
C     -4.423743   -1.605111    2.356626
C     -3.218381   -1.670639    3.022958
C      0.714522   -5.608314   -1.266857
C     -0.202964   -5.959316   -2.267380
C      5.721785    2.172511    0.730016
C      7.198463    0.357596    0.574924
C     -4.539781   -1.984364    1.037699
C     -2.118235   -2.127400    2.339541
C      0.368278   -4.605080   -0.396150
C     -1.432803   -5.302188   -2.368806
C     -1.106050    3.852197   -1.354725
C     -2.737733    3.119286    0.185317
C     -1.952047    4.875593   -1.781944
C     -3.604905    4.117394   -0.208172
C     -0.536196    1.906128    0.033221
C     -0.743857    0.672259   -0.809500
C      1.447036   -0.346146    1.516813
C      0.154621   -2.355891    1.016460
C      1.500379   -0.055568   -0.818634
C     -3.796478   -2.796969   -1.085120
C     -1.487786    2.966836   -0.370877
C      5.900879    0.810480    0.583322
C     -3.437308   -2.456646    0.304909
C      0.126215   -0.808782    0.902272
C     -3.199519    4.980668   -1.185684
C      2.360493   -0.375038    0.341110
C     -2.264254   -2.497443    1.028806
C     -0.844748   -3.978687   -0.521608
C     -1.767583   -4.299118   -1.490768
C      4.789432   -0.102245    0.445739
N      0.160744   -0.394672   -0.466797
N     -1.004060   -2.956038    0.493249
O      4.870903   -1.342912    0.307777
O     -4.065016    5.994380   -1.593495
O     -3.014748   -3.749665   -1.718066
O      3.508043    0.410771    0.464572
H     -5.807435    7.080586   -1.358331
H     -5.995731    5.264082   -1.201335
H     -5.173945    6.252443    0.088112
H      8.929448    3.265032    0.956399
H      6.594681    4.091519    0.973157
H      9.301495    0.883848    0.702460
H     -5.304988   -1.253910    2.856769
H     -3.111869   -1.377647    4.054774
H      1.669190   -6.113116   -1.182032
H      0.059280   -6.736153   -2.945587
H      4.675239    2.515082    0.733636
H      7.438791   -0.698508    0.464465
H     -5.489921   -1.935447    0.504759
H     -1.113334   -2.217214    2.783447
H      1.028448   -4.313229    0.392518
H     -2.089367   -5.627440   -3.166213
H     -0.132030    3.792118   -1.839571
H     -3.075814    2.443718    0.961644
H     -1.650198    5.565050   -2.550794
H     -4.583075    4.190816    0.266328
H     -0.799672    1.638077    1.081457
H      0.483139    2.320588   -0.064273
H     -1.803723    0.375507   -0.741014
H     -0.544375    0.949694   -1.864403
H      1.818965   -1.051160    2.279589
H      1.254381    0.662351    1.919757
H      0.972242   -2.468099    0.229660
H      0.620752   -2.719544    1.908239
H      1.805322   -0.709030   -1.683557
H      1.612554    0.978679   -1.204114
H     -3.844676   -1.876868   -1.710592
H     -4.843594   -3.215798   -1.035822
H     -0.727760   -0.374742    1.363283
H      2.721374   -1.433987    0.233451
