42

C     -2.849221   -1.814478    1.485195
C     -4.020639    2.285584    0.649636
C     -1.797108    0.804306   -1.374172
C     -0.802526    0.028608   -1.672772
C      3.693165   -0.761836   -0.038539
C     -1.114214    0.696370    0.949490
C      1.752745    1.034632   -0.859942
C      2.063970   -2.599299   -0.232309
C      4.920210    2.633945   -0.065715
C      2.368172   -1.175487   -0.263562
C     -2.261460    1.004157    0.016034
C      1.408231   -0.295392   -0.663104
C      4.032664    0.556200   -0.230336
C      3.050723    1.441193   -0.642630
C     -0.624084   -0.692722    0.658164
C     -0.145768   -2.196625   -1.063114
C     -1.411280   -2.609665   -0.413301
C     -0.015532   -0.738467   -0.728166
N      0.921011   -3.022919   -0.593500
N     -1.672024   -1.686098    0.625848
O     -2.087107   -3.624155   -0.778811
O     -2.702905    2.337056    0.203162
O      5.232474    1.253372   -0.092711
O      3.681703    2.670398   -0.751424
H     -2.883975   -1.031304    2.258005
H     -2.794270   -2.784143    2.062858
H     -3.786064   -1.907797    0.893504
H     -4.447096    3.280714    0.822263
H     -3.983355    1.726299    1.628605
H     -4.653612    1.648430   -0.016330
H     -2.370202    1.373103   -2.141018
H     -0.521925   -0.062500   -2.740949
H      4.414054   -1.512604    0.284746
H     -1.442982    0.792769    2.023395
H     -0.296906    1.421213    0.751997
H      1.003123    1.706602   -1.183127
H      2.840710   -3.293159    0.108540
H      4.809642    2.912331    1.003841
H      5.700719    3.231311   -0.581386
H     -3.093673    0.300504    0.279269
H      0.144780   -1.014632    1.427091
H     -0.260168   -2.315816   -2.195880
