62

C      7.938943   -0.348569    1.915637
C     -4.862577   -2.491354   -2.875660
C     -3.949289   -1.627458   -3.448546
C     -2.876243    3.245941    1.522948
C     -3.930327    2.968607    2.348699
C     -5.163780   -2.444986   -1.526373
C     -3.309803   -0.686028   -2.666686
C     -2.572456    2.324033    0.522525
C     -4.697038    1.810659    2.222755
C      4.140468   -1.023934   -1.051689
C      4.598039    1.145223   -0.238149
C      5.243086   -1.519224   -0.341659
C      5.678239    0.663575    0.458059
C      2.689843    0.838198   -1.736818
C      1.364053    0.982965   -1.065850
C     -0.530703    0.226348    1.214045
C     -1.521302    0.555948   -1.113627
C      1.506493   -0.735045    0.540408
C     -4.948176   -1.534190    0.690925
C      3.813736    0.312899   -1.002545
C     -4.540896   -1.519047   -0.731440
C     -0.570762   -0.165168   -0.203228
C      0.500982   -0.774706    1.712569
C      6.017891   -0.671585    0.418486
C     -3.625852   -0.662668   -1.329598
C     -3.330983    1.197011    0.410992
C     -4.396586    0.898240    1.232853
N      0.799857   -0.207102   -0.597853
N     -2.856228    0.382748   -0.672332
O      1.067406   -0.416598    2.906651
O      7.107787   -1.185800    1.115223
O     -5.231322   -0.221830    1.203145
H      8.469684    0.413868    1.345556
H      8.592756   -0.928709    2.570377
H      7.213923    0.212115    2.576808
H     -5.361130   -3.231100   -3.509249
H     -3.688099   -1.630449   -4.499206
H     -2.310096    4.138921    1.645003
H     -4.175421    3.684663    3.133218
H     -5.888261   -3.135524   -1.074043
H     -2.606458    0.033177   -3.050562
H     -1.760893    2.514502   -0.123678
H     -5.522332    1.592418    2.869403
H      3.572249   -1.742132   -1.629561
H      4.349030    2.187679   -0.195062
H      5.514904   -2.566368   -0.369629
H      6.311501    1.313527    1.070701
H      2.496565    0.282895   -2.701275
H      3.035322    1.855838   -2.139546
H      1.404064    1.742642   -0.227052
H      0.731885    1.483050   -1.877150
H     -1.436924   -0.003794    1.811586
H     -0.079480    1.213274    1.430470
H     -1.227677    1.453128   -1.604558
H     -1.307774   -0.175130   -1.973972
H      1.854385   -1.781750    0.357976
H      2.296785   -0.068118    0.922868
H     -4.090287   -1.910517    1.284346
H     -5.862709   -2.147405    0.839894
H     -0.904094   -1.250025   -0.155969
H      0.061699   -1.793969    1.717167
H      0.764386   -1.073810    3.599301
