64

C      8.777017    0.376484   -0.686409
C      7.704344    1.199838   -1.412864
C     -1.151103   -0.061686   -1.233833
C      1.219397    0.627616   -1.626278
C     -5.267632    0.622804    2.052700
C     -1.560351   -1.496531   -0.963381
C      2.551002    0.668081   -1.199360
C     -5.506110    1.944411    1.721487
C      8.414511    0.696020    0.748300
C      6.498364    0.888717   -0.549230
C     -5.811006   -0.025562   -0.162360
C     -0.396433   -1.201742    1.230412
C      1.917552   -0.499722    0.783353
C     -3.937952   -2.217586    0.632671
C     -6.479077    1.603186   -1.917792
C      4.733971   -0.349250    1.576241
C      0.276755    0.026869   -0.840244
C     -5.420622   -0.359870    1.109560
C      0.608705   -0.544450    0.372596
C     -6.053038    1.283666   -0.511699
C     -1.573118   -1.761263    0.497703
C      2.903291    0.106715    0.002360
C     -5.901358    2.272915    0.427962
C     -5.179624   -1.786456    1.426276
C      6.184388   -0.159973    1.731129
N     -2.833324   -1.427091    1.115314
N      6.974323    0.433048    0.722496
O     -6.552138    0.422514   -2.655436
O     -6.145910    3.591411    0.075585
O     -6.231073   -2.583166    0.923645
O      6.735523   -0.537576    2.790700
O      4.215668    0.164832    0.386346
H      9.785791    0.686421   -0.955063
H      8.555843   -0.700032   -0.931579
H      7.907721    2.282696   -1.316310
H      7.590447    0.872903   -2.454483
H     -1.754847    0.657083   -0.658048
H     -1.302433    0.121876   -2.322130
H      0.958723    1.075019   -2.574845
H     -4.955931    0.397252    3.083972
H     -2.465621   -1.786462   -1.486597
H     -0.731915   -2.119801   -1.406736
H      3.257557    1.155653   -1.863374
H     -5.401507    2.758866    2.425999
H      8.949144    0.108868    1.489664
H      8.513745    1.789038    0.861859
H      6.027079   -0.016224   -1.040437
H      5.757325    1.684689   -0.529974
H     -5.941489   -0.805582   -0.940219
H      0.084530   -1.961292    1.896659
H     -0.795168   -0.416116    1.930528
H      2.244211   -0.931961    1.728416
H     -3.761248   -3.307547    0.759439
H     -4.134417   -2.063598   -0.440733
H     -5.751030    2.278452   -2.379795
H     -7.504417    2.028700   -1.906512
H      4.477617   -1.441431    1.661578
H      4.254076    0.111042    2.476508
H     -1.496156   -2.892838    0.601865
H     -5.045612   -1.998725    2.483939
H     -3.077413   -0.417603    0.983769
H     -5.653377    0.049684   -2.842959
H     -6.040922    4.339707    0.755004
H     -6.265247   -3.455944    1.396853
