62

C      7.366801   -2.177023    1.744183
C     -5.845709    2.379945    1.284320
C     -4.701488    2.913141    0.777774
C     -0.217975   -2.812216    1.017584
C     -1.078712   -3.846377    1.294979
C     -5.846037    1.077690    1.682981
C     -3.572026    2.112562    0.683464
C     -0.676513   -1.501007    0.895771
C     -2.410758   -3.543418    1.448979
C      4.609084    0.181212   -1.368066
C      3.604950   -1.089698    0.350396
C      5.876426   -0.165887   -0.924220
C      4.851485   -1.442075    0.801700
C      2.160330    0.167275   -1.307844
C      1.657279    1.437167   -0.723011
C     -1.745003    1.455957   -2.046638
C     -1.171317    1.041518    0.416018
C      0.391304    2.312663   -2.604221
C     -4.956748   -1.059874    2.092579
C      3.456021   -0.272177   -0.741830
C     -4.693686    0.281458    1.580614
C     -0.745121    1.072858   -0.994305
C     -0.791489    1.605912   -3.248118
C      6.005343   -0.985022    0.170676
C     -3.494461    0.798177    1.061514
C     -1.981866   -1.191642    1.044736
C     -2.857716   -2.235207    1.326217
N      0.424367    1.893315   -1.245904
N     -2.215721    0.218101    0.853502
O     -1.361883    2.359051   -4.244197
O      7.273058   -1.329019    0.610522
O     -4.216700   -2.094878    1.508337
H      8.437941   -2.432335    1.954780
H      6.937488   -1.694169    2.648760
H      6.802052   -3.108077    1.533190
H     -6.753783    2.941432    1.384405
H     -4.690266    3.935844    0.462048
H      0.836446   -3.006486    0.889251
H     -0.728116   -4.843327    1.387131
H     -6.713938    0.610421    2.086667
H     -2.710759    2.583536    0.293750
H      0.045389   -0.794812    0.682440
H     -3.146653   -4.299559    1.665977
H      4.546265    0.832240   -2.238883
H      2.724554   -1.447206    0.843573
H      6.735873    0.213742   -1.446644
H      5.014213   -2.082008    1.656218
H      2.297222    0.312504   -2.408308
H      1.476117   -0.692061   -1.205891
H      2.426449    2.235049   -0.922134
H      1.542091    1.395401    0.386512
H     -2.260631    2.398109   -1.928120
H     -2.447085    0.643970   -2.282615
H     -1.185584    2.124055    0.774126
H     -0.276615    0.828787    1.123665
H      0.107130    3.406542   -2.602792
H      1.317329    2.214390   -3.166748
H     -6.047818   -1.304580    2.025322
H     -4.709440   -1.028433    3.194087
H     -0.347819    0.081935   -1.398004
H     -0.564435    0.602996   -3.622392
H     -1.759137    1.809618   -4.967862
