31

C      4.212281   -0.028790    0.227028
C     -0.243495    0.914011    2.226151
C      0.107965   -1.095759   -2.290500
C     -2.302073   -1.101758   -0.899658
C      1.939139    0.413110    1.147802
C      2.082961   -0.579742   -0.948219
C     -3.221962    1.143427    1.175788
C      2.718300   -0.072577    0.134491
C      0.538142    0.392119    1.083842
C      0.696887   -0.601314   -1.017112
C     -1.582433   -0.061766   -0.113291
C     -0.129901   -0.129338   -0.029270
N     -2.323794    0.242491    1.062080
O     -3.541710    1.919512    0.085720
H      4.635827    0.851395   -0.333169
H      4.558510    0.026479    1.275882
H      4.580956   -0.996822   -0.207488
H      0.532334    1.094346    3.067623
H     -0.899227    0.164696    2.713724
H     -0.674944    1.903045    2.084774
H     -0.752824   -0.565727   -2.655533
H      0.097068   -2.202232   -2.322032
H      0.907653   -0.873763   -3.115541
H     -3.194605   -1.468271   -0.249532
H     -2.831888   -0.751731   -1.810122
H     -1.774512   -2.032403   -1.092729
H      2.417668    0.829953    2.045167
H      2.640105   -0.983320   -1.779867
H     -3.712139    1.291421    2.110819
H     -1.767021    0.914205   -0.767359
H     -3.713268    1.445105   -0.809469
