69

C     -1.262145    6.377240   -1.775919
C      8.032561   -2.564784   -1.699260
C     -1.211677   -4.447665   -0.728663
C     -0.447429   -3.743966    0.186785
C     -4.983399    0.952269    2.704866
C     -6.123522    0.752902    1.925683
C     -2.421568   -3.937921   -1.111178
C     -0.925692   -2.546921    0.689543
C     -3.772862    0.403747    2.328933
C     -6.024105   -0.000505    0.774447
C      4.852523   -0.705427    1.431775
C      4.111748   -1.641829   -0.590416
C      6.156068   -1.006884    1.073850
C      5.402753   -1.952487   -0.969295
C      2.378363   -0.697805    0.980428
C      2.079333    0.663021    0.468039
C     -1.035121    1.179634   -0.819141
C     -1.298980    0.011958    1.385254
C      0.700458    2.491121    0.144082
C     -4.229396   -2.460475   -1.206828
C     -1.844767    4.471529   -0.711207
C      3.802442   -1.019484    0.601325
C     -2.906877   -2.733072   -0.607803
C     -0.321526    0.401505    0.268468
C      6.428369   -1.630264   -0.126883
C     -0.556910    2.604143   -0.649323
C     -2.128571   -2.045282    0.304983
C     -3.702071   -0.338219    1.181392
C     -4.835492   -0.563890    0.365744
N      0.785334    1.168408    0.717494
N     -2.371035   -0.802593    0.958736
O     -0.784867    5.307769   -1.025220
O      7.757830   -1.929284   -0.474952
O     -4.872939   -1.297771   -0.805759
O     -1.482656    3.378491    0.032056
H     -2.012464    6.899922   -1.140629
H     -0.458976    7.053904   -2.086240
H     -1.759623    5.976820   -2.701383
H      7.620194   -1.976128   -2.546702
H      9.130086   -2.576262   -1.843239
H      7.650021   -3.605364   -1.699191
H     -0.824164   -5.383258   -1.113384
H      0.497653   -4.162075    0.472528
H     -5.087720    1.542806    3.597055
H     -7.071595    1.176957    2.210681
H     -3.025570   -4.469654   -1.818573
H     -0.365256   -2.012610    1.387634
H     -2.881619    0.517914    2.910668
H     -6.897485   -0.163892    0.161774
H      4.653135   -0.217019    2.374882
H      3.275251   -1.894838   -1.257714
H      6.995948   -0.761585    1.726375
H      5.561206   -2.443129   -1.925020
H      1.781403   -1.502501    0.457912
H      2.325857   -0.757223    2.065587
H      2.315276    0.660520   -0.636986
H      2.819515    1.362638    0.908058
H     -2.111792    1.159224   -0.583675
H     -0.776859    0.862995   -1.829759
H     -1.623893    1.014062    1.799756
H     -0.755545   -0.296247    2.299880
H      0.734956    3.215485    0.986056
H      1.579274    2.713452   -0.519545
H     -4.877967   -3.330648   -0.877337
H     -4.206738   -2.582018   -2.320222
H     -2.326580    4.194568   -1.686885
H     -2.586041    5.069590   -0.131990
H      0.121402   -0.463654   -0.241903
H     -0.355464    3.080041   -1.620501
