54

C     -2.136407   -0.235037    0.237629
C     -1.378085    0.771057   -0.570845
C     -2.999300   -1.133170   -0.618165
C     -0.524980    1.666756    0.250467
C      1.816340   -0.866393    1.650806
C      7.430864    0.883250   -0.344420
C      3.158001   -0.472739    0.998075
C      6.325058    0.474070    0.627696
C      4.206521   -0.700252   -1.097342
C      5.507414   -1.298360   -0.645744
C     -6.682102   -0.295512   -1.889385
C     -6.113102    0.889689   -1.142466
C     -3.982682   -0.290066   -1.355450
C      0.539063    1.002201    1.020829
C     -4.865972    0.480607   -0.444618
C     -6.625687    0.451822    0.975535
N      0.771969   -0.236446    0.888616
N     -7.017486    1.129103   -0.041639
N     -5.434693   -0.292807    0.648193
O      8.598004    0.189830   -0.139452
O      1.282080    1.812626    1.907116
O     -7.296362    0.470580    2.201758
O      3.151809   -0.916574   -0.287512
O      5.988305   -0.848786    0.548613
S     -5.226862   -1.329924   -2.224427
H     -1.433737   -0.891881    0.771522
H     -2.753382    0.343442    0.970520
H     -2.076520    1.395822   -1.193764
H     -0.730472    0.266089   -1.326090
H     -2.351216   -1.635887   -1.354546
H     -3.534890   -1.861994   -0.013119
H     -0.086670    2.499048   -0.367788
H     -1.206350    2.209154    0.964889
H      1.688991   -1.964137    1.535313
H      1.816013   -0.649065    2.720896
H      7.593892    1.983584   -0.249463
H      7.049414    0.734789   -1.368636
H      3.210290    0.647459    0.997866
H      3.978847   -0.876003    1.622810
H      6.738315    0.681202    1.641634
H      5.467189    1.137890    0.507227
H      4.344638    0.384543   -1.360857
H      3.968838   -1.208125   -2.085061
H      6.279813   -1.118528   -1.439538
H      5.325723   -2.403008   -0.575064
H     -7.083145    0.099809   -2.858947
H     -7.457771   -0.833714   -1.334089
H     -5.993685    1.777149   -1.794148
H     -3.572156    0.381180   -2.105815
H     -4.401803    1.392934   -0.031387
H     -5.128306   -1.154251    1.119650
H      8.420913   -0.593737    0.440762
H      1.706276    1.382816    2.714691
H     -8.270759    0.714476    2.296663
