27

C      0.575655   -1.235208   -0.190996
C     -0.682040   -1.387942    0.179412
C     -0.324053    0.910586   -0.041305
C      0.790274    0.144041   -0.761514
C     -1.408730   -0.136323   -0.110366
C      2.126547    0.595790   -0.353374
N     -2.440519    0.069795    0.881031
O      2.958493    0.866592   -1.253672
O      2.526671    0.741854    0.963292
C      1.056372    0.201553   -0.046218
O     -1.772569    0.635895    0.001281
O     -0.803927   -1.450029   -1.113751
O     -0.661850   -1.316524    1.353157
S     -0.554455   -0.527787    0.067765
H      1.328567   -2.017612   -0.085129
H     -1.128847   -2.293860    0.631235
H     -0.027482    1.175475    0.979427
H     -0.575356    1.814764   -0.643019
H      0.659017    0.159468   -1.841053
H     -1.813201   -0.148115   -1.144554
H     -3.187051    0.699618    0.565033
H     -2.879464   -0.870512    1.051666
H      3.501520    0.911587    1.173885
H      1.347439    0.613695    0.932177
H      1.773194   -0.629406   -0.258332
H      1.033658    0.931321   -0.864456
H     -1.417863    1.541283   -0.071623
