85

C      0.742384    3.386763    3.662544
C      2.970204    2.405450    3.496026
C      6.412763   -4.050082   -2.334015
C     -5.474759   -5.591255    1.436664
C      5.048978   -3.957261   -2.499871
C      7.065907   -2.978491   -1.765197
C     -4.385243   -5.668164    0.601996
C     -6.384059   -4.569477    1.305144
C     -1.387930    4.198693   -0.379236
C      4.364945   -2.827867   -2.107885
C      6.390798   -1.848291   -1.371369
C     -4.193891   -4.710325   -0.384029
C     -6.198717   -3.605425    0.318277
C     -2.261639    3.009837   -0.659865
C     -0.123967    4.131284   -1.167133
C      4.246849   -0.538038   -1.164399
C     -4.906873   -2.667849   -1.553425
C      4.639576   -0.902673    1.240484
C      1.498862    2.152050    3.273605
C      5.010217   -1.738972   -1.532269
C     -5.113537   -3.672459   -0.520188
C      3.608012   -0.677167    0.188452
C     -1.568279    1.746193   -0.294644
C     -4.138664   -1.445369   -1.126097
C      1.228584    1.797680    1.798387
C     -1.198502    1.712169    1.161546
C      2.003665    0.557931    1.458648
C     -4.810530   -0.709627   -0.036755
C     -0.856648    5.187365   -3.315347
C     -1.883636   -0.617984   -0.501085
N     -0.796110    6.390015   -2.800241
N     -0.332359    4.082735   -2.587397
N      2.859076    0.537965    0.508631
N     -2.372814    0.570851   -0.580503
N     -2.748887   -1.724233   -0.800425
N     -0.076502    1.748934    1.533719
O      5.392988   -2.034699    1.089420
O     -2.259072    1.636139    2.102887
O      1.791593   -0.598334    2.188752
O     -4.221246   -0.463859    1.037609
O     -6.109990   -0.278299   -0.195086
O     -1.432896    5.029515   -4.559262
O     -0.552627   -0.838269   -0.136829
H     -0.332263    3.333450    3.445166
H      1.143913    4.256866    3.129249
H      0.903743    3.532245    4.757884
H      3.508014    2.021527    2.609325
H      3.364502    1.861928    4.372306
H      3.172362    3.500912    3.585207
H      6.971098   -4.944186   -2.641504
H     -5.613242   -6.341026    2.199769
H      4.519492   -4.784892   -2.945187
H      8.147228   -3.045563   -1.631656
H     -3.646879   -6.443480    0.660704
H     -7.254471   -4.465080    1.936061
H     -1.933223    5.166408   -0.538492
H     -1.093718    4.240826    0.703619
H      3.285148   -2.731957   -2.228580
H      6.929263   -1.002697   -0.922872
H     -3.351723   -4.765823   -1.052361
H     -6.908128   -2.808562    0.204650
H     -2.546697    2.945340   -1.729017
H     -3.209624    3.176016   -0.108944
H      0.481396    5.037573   -0.872471
H      0.460362    3.251780   -0.847129
H      4.914723    0.352742   -1.139142
H      3.437465   -0.327582   -1.929279
H     -4.344553   -3.087948   -2.425613
H     -5.868201   -2.283856   -1.986338
H      4.113809   -1.007845    2.237060
H      5.278035    0.017603    1.399104
H      1.210081    1.259109    3.846938
H      2.947045   -1.548160    0.145454
H     -0.650573    1.635003   -0.879602
H     -4.131267   -0.749397   -2.011872
H      1.752354    2.603392    1.165431
H     -0.380414    6.584551   -1.876268
H     -0.098911    3.219561   -3.120822
H     -2.362031   -2.684935   -0.774796
H      6.189554   -2.010090    1.661016
H     -2.012857    1.183939    2.987787
H      1.771048   -1.505750    1.776205
H     -6.657280    0.192610    0.510815
H     -1.727110    5.800772   -5.140753
H      0.136510   -0.202422   -0.561291
