22

C      3.663534    0.041831    0.392695
C     -1.880007   -0.480415    0.973906
C     -0.856957   -1.350505    0.233417
C     -0.852854    0.944164   -0.554675
C      2.389066   -0.216468   -0.362840
C     -2.234352    0.482982   -0.149454
C     -0.049921   -0.323712   -0.490860
O      2.429815   -0.568423   -1.565226
O     -3.040327    1.517714    0.276523
O      1.149473   -0.077760    0.230044
H      4.508153   -0.409765   -0.152967
H      3.794883    1.145070    0.447677
H      3.587098   -0.396335    1.420429
H     -1.369347    0.085128    1.761224
H     -2.740759   -1.065744    1.317468
H     -0.293676   -1.996025    0.901574
H     -1.451891   -1.921515   -0.532135
H     -0.838560    1.420450   -1.552535
H     -0.500038    1.639931    0.243536
H     -2.692183   -0.123944   -0.960595
H      0.185351   -0.622898   -1.533184
H     -2.906499    2.276241   -0.344022
