81

C      4.505305    0.146563   -1.726217
C      7.227222   -1.308931    0.660336
C     -5.924907    0.280066    1.677563
C     -6.196634    1.305297   -0.503514
C     -3.179289   -1.078905    1.890026
C      0.952217   -0.128102    1.257247
C      0.090089    0.982771   -2.265269
C     -5.204056   -2.241025    0.122950
C     -3.750067   -2.110454   -0.213730
C      4.042961   -1.018285    0.441900
C      5.862909    0.652109    0.928448
C      2.231872    1.685615   -0.497743
C     -3.480186    1.625085    0.422831
C      0.474599   -1.583734   -0.654365
C      3.468290   -0.522865   -0.805085
C      7.018941    0.135747    0.594039
C      4.723036   -0.098191    1.376210
C      2.236754    0.247399   -0.881831
C     -2.254805    1.787657   -0.486634
C     -0.829975   -1.701469    0.091472
C     -4.045753    0.300879   -0.016123
C     -6.010292   -1.110906   -0.402347
C      0.773825    1.946019   -0.094606
C     -1.794630   -0.552094    0.006859
C     -1.355897    0.615719   -0.377349
C      8.123754    1.015164    0.144927
C     -5.494335    0.167597    0.258863
C     -3.186244   -0.839259    0.389850
C      0.996581   -0.266471   -0.256398
C      0.038320    0.842955   -0.753453
O      5.010807   -0.878270    2.542220
O     -1.710881    3.016742   -0.362742
O     -1.070489   -2.699182    0.732611
O     -7.361196   -1.274839   -0.221308
O      0.529107    2.884379    0.600089
O      9.205956    0.486698   -0.163864
O      7.983636    2.382982    0.062313
H      3.982370    0.237940   -2.712957
H      4.721231    1.170597   -1.399433
H      5.372970   -0.488446   -1.883060
H      6.792778   -1.848172    1.490584
H      8.348861   -1.474783    0.780687
H      7.049909   -1.776924   -0.354408
H     -5.850265   -0.648726    2.266716
H     -5.459027    1.161918    2.141566
H     -7.031114    0.516223    1.661606
H     -7.149140    0.957427   -0.935862
H     -5.564130    1.621974   -1.372261
H     -6.351504    2.184062    0.128580
H     -3.508433   -0.188656    2.461968
H     -3.726494   -1.992903    2.193806
H     -2.136469   -1.260430    2.220867
H     -0.080261    0.227058    1.569360
H      1.601223    0.703617    1.593573
H      1.070434   -1.073098    1.796499
H     -0.911540    1.390665   -2.622457
H      0.176442    0.026670   -2.802114
H      0.802523    1.769592   -2.570983
H     -5.436507   -2.359421    1.190601
H     -5.607024   -3.184425   -0.357893
H     -3.261790   -2.965621    0.294746
H     -3.650242   -2.137651   -1.305658
H      4.760992   -1.880067    0.250152
H      3.271263   -1.550784    1.087630
H      5.804185    1.753720    0.844233
H      2.427988    2.314078   -1.415048
H      2.924320    2.014603    0.259871
H     -4.188886    2.413938    0.160690
H     -3.232452    1.689317    1.476297
H      0.362367   -1.753718   -1.721948
H      1.139899   -2.368770   -0.245589
H      3.245436   -1.482293   -1.426813
H      3.944196    0.610807    1.791415
H      1.975285    0.267092   -2.010525
H     -2.744779    1.784236   -1.531073
H     -3.976344    0.319801   -1.152894
H     -5.768299   -0.999756   -1.495614
H      4.170700   -1.187990    2.958452
H     -1.991182    3.685877   -1.032852
H     -7.534574   -2.254423   -0.152142
H      8.568536    2.961383   -0.560193
