39

C     -3.335054    0.459186   -1.310072
C     -1.887761   -1.580853   -1.209113
C     -2.760428   -0.703716    1.574981
C      5.201405   -0.866410    1.050752
C      5.113152    0.321874    0.375506
C      4.055494   -1.611652    1.204137
C      3.916826    0.756284   -0.132937
C      2.855344   -1.155593    0.682747
C     -1.168404    1.954498   -0.466072
C     -2.066590    1.572731    0.723865
C      2.741267    0.035140    0.000650
C     -0.846121    0.700298   -1.199022
C      0.207508   -0.116675   -0.454855
C      1.493208    0.539320   -0.568484
C     -0.414036   -0.143657    0.892080
C     -2.059886   -0.164480   -0.791734
C     -1.898501    0.072644    0.699957
O      1.568792    1.626707   -1.199068
O      0.031962   -0.294996    2.003058
H     -3.745818   -0.270696   -2.066403
H     -4.117184    0.548513   -0.535978
H     -3.136700    1.399411   -1.854087
H     -1.227110   -1.699861   -2.113111
H     -2.893137   -2.010206   -1.461265
H     -1.470142   -2.158573   -0.355214
H     -3.687135   -1.013659    1.006446
H     -3.138792   -0.182950    2.472381
H     -2.265180   -1.669049    1.848306
H      6.130815   -1.243286    1.467602
H      5.990541    0.918043    0.243844
H      4.124663   -2.544661    1.734278
H      3.894797    1.713950   -0.666104
H      1.980410   -1.764239    0.814911
H     -0.253918    2.398449   -0.050531
H     -1.690283    2.683102   -1.119376
H     -3.092029    1.910922    0.589194
H     -1.684727    1.989581    1.666838
H     -0.703919    0.760387   -2.255265
H      0.236670   -1.165826   -0.816278
