32

C      4.120765   -1.143247    0.118014
C      1.379225    2.775521   -0.272286
C     -4.447026   -1.062012   -0.318000
C     -4.500285    0.257455    0.036337
C     -3.218287   -1.646185   -0.490045
C     -3.385270    1.020920    0.226940
C      1.760477   -1.376738   -0.480424
C      2.780139   -0.491274    0.220286
C      1.583310    1.394609    0.264599
C     -2.086124   -0.907205   -0.306218
C     -2.152916    0.412485    0.048348
C      0.443044   -0.721416   -0.288230
C      0.380943    0.536600    0.049743
C     -0.756496   -1.523170   -0.488045
C     -0.918059    1.165794    0.234728
O     -0.740072   -2.736859   -0.813568
O     -1.009448    2.380797    0.561538
O      2.719667    0.777452   -0.306935
H      3.960830   -2.247581    0.287178
H      4.502293   -1.016415   -0.910692
H      4.852652   -0.733537    0.839251
H      0.610505    2.751840   -1.082181
H      2.329082    3.119988   -0.732985
H      1.067845    3.468154    0.532551
H     -5.338084   -1.643317   -0.462588
H     -5.460317    0.726882    0.174234
H     -3.127681   -2.687167   -0.770199
H     -3.438383    2.046591    0.502523
H      1.817852   -2.370179   -0.000060
H      2.003496   -1.480378   -1.555397
H      2.493792   -0.475039    1.292893
H      1.772528    1.426633    1.355774
