41

C     -3.311957   -1.503112   -0.474055
C     -1.414612    2.388491   -0.022418
C     -0.682651    1.569339   -0.730140
C     -0.560248   -0.675244   -1.620496
C     -1.110404   -1.970218   -1.105748
C      2.636500   -0.819621    1.519486
C      1.924345    0.764187   -0.590737
C     -2.595689    0.481603    0.914492
C      0.258227   -1.474448    1.842696
C      5.553125    0.623335   -0.109037
C      1.326911   -0.727183    1.137707
C     -2.063133    1.896626    1.216558
C      0.952882    0.061108    0.083594
C      3.623379   -0.123618    0.857290
C      3.267739    0.673859   -0.204681
C     -0.473395    0.168769   -0.342411
C     -1.424612   -0.430075    0.597161
N     -1.966743   -1.631114   -0.008836
O     -3.194402    2.678844    1.438719
O      5.018158   -0.022168    1.015960
O      4.429116    1.257274   -0.691665
O     -0.910331   -0.783519    1.832750
H     -4.044880   -1.261348    0.323672
H     -3.614956   -2.534983   -0.822505
H     -3.447959   -0.855551   -1.347274
H     -1.565648    3.441770   -0.320008
H     -0.193452    1.922821   -1.672571
H     -1.290317   -0.200595   -2.318012
H      0.422904   -0.817226   -2.090988
H     -0.329035   -2.672065   -0.788105
H     -1.710449   -2.494741   -1.907925
H      2.941153   -1.449505    2.363073
H      1.728028    1.415115   -1.441614
H     -3.097116    0.163241    1.851355
H     -3.277835    0.605566    0.060309
H      0.201593   -2.532944    1.540479
H      0.590036   -1.511266    2.923658
H      6.312599    1.395158    0.181227
H      5.978775   -0.099419   -0.844112
H     -1.416641    1.903958    2.095740
H     -3.469006    3.178902    0.608775
