43

C     -3.260780    1.724052    0.154017
C     -1.507607   -2.843105    0.180758
C     -1.973161    2.042593   -0.550416
C     -0.333271   -2.199719   -0.518476
C      2.453933   -0.720997    1.007061
C      3.812254   -0.573887    0.351046
C     -3.428669    0.252160    0.296777
C     -2.615704   -1.870736    0.190311
C      0.288513    1.398146   -1.069645
C     -0.783103    1.334204    0.000559
C      0.050102   -1.018988    0.397317
C      1.369539   -0.554135   -0.074412
C      3.972769    0.861600   -0.091609
C     -1.055361   -0.051199    0.485158
C      2.663313    1.513985   -0.334560
N     -2.294298   -0.526834   -0.150652
N      1.457031    0.809476   -0.495203
O      4.669278    1.538136    0.903491
O      2.627694    2.775570   -0.401348
H     -4.092583    2.110089   -0.490626
H     -3.341894    2.273064    1.115260
H     -1.167261   -3.020055    1.243183
H     -1.802824   -3.800427   -0.296431
H     -1.811770    3.152439   -0.433282
H     -2.094637    1.886388   -1.650001
H     -0.708357   -1.804879   -1.498142
H      0.512960   -2.878810   -0.634912
H      2.331626    0.180240    1.661073
H      2.325348   -1.665843    1.532391
H      4.571701   -0.825871    1.140137
H      3.955975   -1.290810   -0.476345
H     -3.574871    0.018568    1.381803
H     -4.317069   -0.152011   -0.228542
H     -3.384958   -2.216200   -0.559302
H     -3.154710   -1.958013    1.178253
H      0.488730    2.483536   -1.240290
H     -0.030451    0.959338   -2.023112
H     -0.388854    1.958930    0.851112
H      0.219587   -1.531877    1.394317
H      1.789282   -1.156971   -0.937191
H      4.607197    0.896721   -1.004594
H     -1.359227    0.052267    1.564170
H      4.314588    2.439864    1.014886
