38

C     -2.354349   -2.065791   -0.239886
C     -1.237451    2.902349   -0.137993
C     -2.315901    2.537856    0.754167
C     -0.493314    1.969121   -0.651701
C     -2.528005    1.284597    1.030875
C     -1.036910   -0.095294   -1.741843
C     -2.546917   -0.104509   -1.618290
C      2.132554   -0.854032    1.681095
C      1.723108   -0.026151   -0.919430
C     -0.269917   -0.322748    2.234983
C      5.225868   -0.834366   -0.255411
C      0.890909   -0.395513    1.295078
C      0.690619    0.013961    0.006535
C      3.168431   -0.893010    0.747471
C      2.977306   -0.481943   -0.556416
C     -0.642975    0.505978   -0.406152
C     -1.742568    0.143736    0.501355
N     -2.706486   -0.654617   -0.283909
O      4.474979   -1.298034    0.870566
O      4.196324   -0.648977   -1.212271
O     -1.414835   -0.670664    1.561286
H     -1.281787   -2.231963   -0.061742
H     -2.903895   -2.590473    0.571571
H     -2.680469   -2.550469   -1.192615
H     -1.057794    3.941896   -0.370803
H     -2.934538    3.318297    1.181156
H      0.316923    2.255293   -1.323255
H     -3.341744    1.040803    1.701585
H     -0.687581   -1.127185   -1.852999
H     -0.735905    0.559972   -2.591346
H     -3.023831   -0.749122   -2.373626
H     -2.964005    0.922413   -1.584410
H      2.248773   -1.164598    2.695503
H      1.609796    0.287145   -1.946819
H     -0.326193    0.646464    2.759170
H     -0.085164   -1.101906    3.003198
H      5.957039   -1.578390   -0.600153
H      5.699905    0.109874    0.029576
