29

C     -2.965228   -0.602015    0.563399
C     -2.563540   -0.353221   -0.850191
C     -1.362353    0.461744   -1.101908
C      0.108097   -0.186019    0.809934
C      1.419968    0.299215    1.379972
C      2.208407    0.323097   -1.006893
C     -0.042515   -0.008068   -0.635621
C      2.576933    0.193259    0.450232
N      0.931766    1.039283   -1.035005
O      3.261592   -1.017984    0.586324
Cl     0.687637    0.000000    0.000000
H     -2.985912    0.367317    1.124093
H     -2.320496   -1.337175    1.065387
H     -4.022894   -1.017452    0.543503
H     -3.469049    0.122458   -1.355740
H     -2.462639   -1.361029   -1.365464
H     -1.540166    1.470802   -0.587834
H     -1.316718    0.739714   -2.211600
H     -0.687059    0.348629    1.349882
H     -0.010437   -1.281528    1.048478
H      1.327023    1.343580    1.738738
H      1.627106   -0.316437    2.278718
H      2.956390    0.887329   -1.561032
H      2.065832   -0.693046   -1.428880
H      0.272500   -0.935467   -1.213919
H      3.321576    0.990221    0.659912
H      0.937812    1.750219   -0.279155
H      2.734006   -1.712983    1.034667
H     -0.687637    0.000000    0.000000
