51

C     -3.463638   -0.990621   -1.043891
C     -3.722951   -0.487793    1.320708
C      4.936602   -0.591544    0.108152
C     -0.761037    0.848776   -1.794341
C      1.801694    1.426119   -0.498579
C     -1.029614   -1.690377    0.121654
C     -2.429004    2.452299   -0.133445
C      3.123719    0.865209   -0.822857
C     -1.034588    2.108610    0.253942
C      0.296224   -1.804117    0.887492
C      3.007095   -1.508363   -1.170524
C      1.678965   -1.453266   -1.097906
C      2.590777   -0.818438    0.977381
C     -1.496289   -0.268220    0.343594
C      0.800958    0.537898    0.156522
C     -3.326675    1.299564   -0.246854
C     -2.944921   -0.111098    0.052940
C      3.473279   -0.458168   -0.217316
C     -0.608826    0.747591   -0.327294
C      1.252522   -0.888408    0.212819
O     -4.474118    1.495733   -0.612785
H     -4.011819   -0.384726   -1.824266
H     -2.705236   -1.601265   -1.543235
H     -4.249611   -1.720696   -0.687891
H     -3.791190   -1.608026    1.295623
H     -4.747059   -0.090762    1.253937
H     -3.153086   -0.155937    2.189447
H      5.016744   -1.037301    1.120580
H      5.402963    0.402331    0.067203
H      5.473707   -1.261101   -0.590029
H     -0.692731    1.926315   -2.130787
H     -0.122750    0.223706   -2.408686
H     -1.823274    0.568573   -2.057257
H      1.315698    1.801915   -1.448691
H      1.954070    2.380977    0.089569
H     -1.732428   -2.365566    0.604847
H     -0.788095   -1.915094   -0.923806
H     -2.419309    3.008616   -1.100211
H     -2.816739    3.197529    0.616449
H      3.263769    0.803416   -1.944840
H      3.955005    1.570176   -0.516683
H     -0.322330    2.896872    0.007398
H     -0.997301    1.953569    1.366681
H      0.077204   -1.456526    1.916563
H      0.686039   -2.822127    0.879111
H      3.617938   -2.178346   -1.793802
H      1.057897   -1.800726   -1.936489
H      2.575686   -0.027532    1.734463
H      2.892405   -1.793993    1.346201
H     -1.353462   -0.086126    1.451834
H      0.767121    0.860471    1.246141
