28

C      4.656498    0.259534   -0.198828
C      4.118946    1.514671   -0.382011
C      3.781061   -0.767638    0.050350
C      2.767984    1.767793   -0.325182
C     -1.903320   -0.860186   -0.849677
C     -3.292369   -0.438153   -0.429420
C     -1.930648   -0.258859    1.479687
C     -1.191283   -1.081016    0.481442
C     -2.968441    0.548540    0.696033
C      2.421941   -0.550316    0.114173
C      1.884492    0.719620   -0.071657
C      0.226463   -0.604552    0.289517
N      1.347192   -1.341654    0.336347
O     -4.112107    0.766343    1.430984
O      0.599290    0.626480    0.041929
H      5.740243    0.108849   -0.253746
H      4.823954    2.323931   -0.579468
H      4.180684   -1.754684    0.196154
H      2.344192    2.752936   -0.468826
H     -1.926166   -1.772997   -1.444748
H     -1.403645   -0.039050   -1.391089
H     -3.802340    0.042198   -1.269813
H     -3.850078   -1.300425   -0.046284
H     -1.316538    0.362660    2.127926
H     -2.537839   -0.965896    2.111686
H     -1.213080   -2.164411    0.676095
H     -2.528313    1.451363    0.256602
H     -4.916774    0.654920    0.832319
