17

C     -1.898596    0.551049   -0.799017
C     -1.488313   -0.688951   -0.064566
C      0.409442    0.385048    1.179816
C     -0.041004   -0.732425    0.296539
C      1.915850   -0.006935   -0.426102
N      0.853384   -0.616842   -0.811795
O      1.825555    0.327410    0.930941
S      3.367884    0.405591   -1.413785
H     -1.804200    1.447034   -0.172902
H     -2.956837    0.413864   -1.121810
H     -1.308785    0.626133   -1.741185
H     -1.721251   -1.585827   -0.664590
H     -2.076891   -0.750989    0.869380
H      0.189063    0.237688    2.246207
H      0.067503    1.337721    0.770578
H      0.158464   -1.695770    0.798532
H      4.508732    0.346202   -0.577838
