35

C     -3.919476   -0.984548   -0.803801
C     -3.459322    0.019069    1.425893
C      3.166882   -1.550370   -1.256848
C      4.544303   -1.633847   -1.347181
C      1.197947   -0.355504   -0.464560
C     -0.791225    0.870612    0.343424
C      2.860047    1.512096    0.640097
C      2.583816   -0.495940   -0.590227
C      0.644726    0.706751    0.206069
C      1.491431    1.638286    0.756473
C      3.423409    0.450094   -0.030585
C     -1.611762   -0.248578   -0.229858
C      5.321337   -0.655922   -0.766147
C     -3.108908    0.022748   -0.037577
O      0.979457    2.749062    1.455710
O     -1.326247   -1.476674    0.302268
O      6.593662   -0.720907   -0.842172
O     -3.343867    1.282712   -0.597227
O      4.738335    0.323020   -0.146049
H     -3.661700   -2.031651   -0.565495
H     -4.988890   -0.767897   -0.594836
H     -3.767139   -0.812867   -1.882625
H     -2.640305   -0.394147    2.034488
H     -4.428278   -0.476476    1.641967
H     -3.590645    1.089439    1.749696
H      2.524798   -2.280824   -1.689626
H      5.015256   -2.452255   -1.865044
H      0.612296   -1.128548   -0.926819
H     -1.110380    0.973371    1.422514
H     -1.075806    1.843566   -0.121819
H      3.512807    2.251644    1.077948
H     -1.445303   -0.282031   -1.323394
H     -0.025438    2.839430    1.539677
H     -0.705688   -1.480314    1.053743
H     -4.210130    1.657402   -0.315576
