35

C     -3.533195   -0.485139    1.370698
C     -3.884673    1.350355   -0.203686
C      3.610353   -0.145977    1.804919
C      4.939614    0.161651    1.602217
C      1.415398   -0.555141    0.927274
C     -0.895055   -0.988153    0.022642
C      2.372027   -0.136380   -1.637144
C      2.748331   -0.247670    0.737739
C      0.542980   -0.658816   -0.144784
C      1.051857   -0.444456   -1.405403
C      3.218810   -0.041302   -0.529914
C     -1.698584    0.280051   -0.154955
C      5.340291    0.356160    0.292056
C     -3.183510    0.028313    0.000300
O      0.168662   -0.549512   -2.491634
O     -1.277045    1.232329    0.763814
O      6.541689    0.635319    0.095711
O     -3.619407   -0.932738   -0.925111
O      4.480749    0.249014   -0.701278
H     -3.074315    0.173756    2.145099
H     -4.630926   -0.365725    1.489101
H     -3.306274   -1.545111    1.526660
H     -3.255465    2.075851   -0.760830
H     -4.836856    1.184338   -0.777640
H     -4.185345    1.731697    0.790713
H      3.238976   -0.308854    2.804764
H      5.609906    0.239818    2.447428
H      1.039064   -0.718073    1.919091
H     -1.173277   -1.772920   -0.685511
H     -1.019945   -1.332090    1.082092
H      2.739378    0.024204   -2.628236
H     -1.522177    0.683490   -1.165908
H      0.488347   -0.401625   -3.444820
H     -0.451690    1.676620    0.464729
H     -3.998692   -0.453284   -1.690772
