58

C     -2.960145   -1.112199    1.668815
C     -4.208078   -1.029441   -1.809458
C      3.239040    4.518250    0.610187
C      0.028606   -5.099725   -0.342421
C      1.983157    5.006272    0.885173
C     -1.282951   -4.758458   -0.086205
C      3.489800    3.160440    0.374422
C      0.989754   -4.111819   -0.324825
C      0.938385    4.111573    0.927291
C     -1.654461   -3.434517    0.190203
C      3.784790   -2.267123   -0.474071
C      2.424599    2.304181    0.425387
C      0.609503   -2.808567   -0.050395
C      2.670625   -1.365653   -0.156750
C      1.151881    2.762175    0.698815
C     -0.705170   -2.434099    0.212663
C      1.342494   -1.672801    0.014559
C      2.301008    0.944692    0.250041
C      3.171919   -0.071615   -0.044771
C      0.962773    0.659703    0.427581
C      0.479872   -0.647924    0.311049
C     -2.052406    1.210618   -1.195798
C     -1.933708    2.338800   -0.227756
C     -2.746655    0.052322   -0.474970
C      4.577962   -0.134479   -0.283916
C     -1.168729    1.828115    0.955542
C     -2.006900   -0.364547    0.755128
N      4.896423   -1.373963   -0.521768
N      0.276819    1.762481    0.698256
N     -0.794331   -1.109491    0.437961
O     -0.826852    0.789658   -1.665110
O     -3.207522    2.706380    0.230192
O      5.546629    0.889146   -0.288662
O     -2.881089   -0.905345   -1.439005
O     -1.620378    0.708355    1.545017
H     -2.461599   -1.889401    2.284492
H     -3.902137   -1.424074    1.186136
H     -3.368426   -0.416952    2.488870
H     -4.349978   -1.804399   -2.601850
H     -4.823863   -1.353262   -0.957253
H     -4.593367   -0.080318   -2.255951
H      4.072403    5.197733    0.571683
H      0.275882   -6.130245   -0.550996
H      1.788322    6.058887    1.068008
H     -2.058621   -5.503525   -0.091947
H      4.491405    2.868182    0.168960
H      2.015989   -4.382487   -0.526220
H     -0.055450    4.466076    1.140351
H     -2.661494   -3.183605    0.370303
H      3.935913   -2.990627    0.364521
H      3.678895   -2.791247   -1.445293
H     -2.750479    1.510371   -2.010048
H     -1.393125    3.215197   -0.641366
H     -3.740225    0.446544   -0.201626
H     -1.250273    2.649924    1.731580
H     -0.671092    1.152612   -2.591099
H     -3.325634    2.536254    1.197691
H      6.330291    0.796967   -0.931348
