34

C     -3.479008    0.411410   -1.670873
C      4.933350    0.321203   -0.033028
C      4.009648    1.234340   -0.444323
C      4.563798   -0.949699    0.334728
C     -3.295648    0.034562    1.094747
C      2.675025    0.861499   -0.488073
C      3.224948   -1.296489    0.281978
C     -1.996595   -0.729562    0.793598
C     -2.969339    1.348462    0.409010
C     -0.072703    0.274776   -0.467002
C      2.261059   -0.400682   -0.128651
C     -1.505111   -0.162771   -0.500493
C      0.856212   -0.849028   -0.156543
N     -2.401972    0.900852   -0.821067
O      0.613623   -1.525205    1.013337
H     -3.343114    0.711465   -2.725125
H     -3.561653   -0.687281   -1.581725
H     -4.465538    0.826204   -1.346920
H      5.969239    0.614053   -0.000198
H      4.298042    2.218722   -0.728909
H      5.308029   -1.644383    0.652766
H     -3.457866    0.138271    2.170829
H     -4.102525   -0.517953    0.617612
H      1.963304    1.584265   -0.811229
H      2.956630   -2.288559    0.571541
H     -1.338043   -0.500825    1.659822
H     -2.168433   -1.807677    0.693552
H     -3.844319    1.987186    0.289124
H     -2.156147    1.818281    1.016633
H      0.009352    1.048589    0.336270
H      0.217628    0.702452   -1.435238
H     -1.573658   -0.947315   -1.326088
H      0.805282   -1.601235   -1.003171
H      1.066502   -1.127930    1.799690
