37

C     -3.401551   -1.454478   -0.273107
C     -2.263321   -2.449924   -0.095401
C     -3.106059    1.138355   -0.319931
C      2.446403   -1.576101    0.151141
C     -0.912986    1.974020    0.560611
C      1.899458    1.068945    0.546857
C      0.033816   -1.977619   -0.378973
C      5.461069    0.415947    0.805673
C     -2.790162   -0.123666   -0.062338
C      1.163068   -1.088643    0.000908
C     -2.279709    2.319235    0.012033
C      0.853894    0.247980    0.194662
C     -0.531008    0.650370    0.008527
C      3.485927   -0.726336    0.507607
C      3.200973    0.591720    0.702466
C     -1.482432   -0.370516    0.621600
N     -1.130337   -1.721680    0.401794
O     -2.042089    3.045928   -1.178796
O      4.847216   -0.876904    0.736101
O      4.372023    1.280632    1.053430
H     -4.194096   -1.611771    0.490429
H     -3.872950   -1.554904   -1.274653
H     -2.579897   -3.175722    0.709434
H     -2.069329   -3.043272   -0.993396
H     -4.064206    1.362964   -0.826716
H      2.689552   -2.619360    0.000236
H     -0.192113    2.791383    0.367147
H     -1.034911    1.859625    1.674807
H      1.691507    2.105058    0.703147
H     -0.179601   -1.922228   -1.468962
H      0.373504   -3.022809   -0.185710
H      6.207751    0.473552    1.614933
H      5.947690    0.679387   -0.137557
H     -2.814516    3.032037    0.676261
H     -0.747331    0.683106   -1.100903
H     -1.648180   -0.118979    1.710040
H     -1.337069    3.714666   -0.996674
