46

C     -3.037875   -2.277671    0.105666
C     -4.347343    1.242923   -2.454960
C      0.646823    2.921541   -0.288324
C      2.361658    1.640627    0.657324
C      1.477269    4.010026   -0.297039
C      3.204983    2.753729    0.645406
C     -1.230260   -1.850240    1.726337
C      0.669750   -3.019877    0.987385
C      1.845669   -0.907286   -0.350959
C      4.013456   -3.812079   -0.310722
C     -2.388734   -1.229625    1.021625
C      1.076562    1.670828    0.201505
C      0.035179   -1.806941    1.017804
C      2.771527    3.949871    0.168099
C      0.677686   -0.771920    0.324760
C      1.881055   -3.180790    0.296451
C      2.459435   -2.123437   -0.367769
C      0.118469    0.577474    0.282571
C     -3.349288    0.355410   -0.500019
N      3.621896    5.086720    0.152203
N     -3.217487    0.862707   -1.667282
N     -1.163943    0.864617    0.235744
N     -2.219684   -0.031966    0.304013
O     -4.631721    0.178298   -0.004708
O      2.724063   -4.265875    0.102407
O      3.653297   -2.601089   -0.955776
H     -2.664876   -2.211291   -0.919296
H     -4.149565   -2.137541    0.086863
H     -2.860633   -3.258839    0.594292
H     -4.982696    0.327297   -2.631837
H     -4.984301    1.932043   -1.826940
H     -4.073167    1.737923   -3.406341
H     -0.349294    3.009994   -0.657731
H      2.778957    0.745432    1.094241
H      1.135484    4.981611   -0.680248
H      4.211181    2.666754    1.018093
H     -1.091771   -1.380931    2.734404
H     -1.492834   -2.908952    1.932390
H      0.280421   -3.899271    1.483002
H      2.275194   -0.068468   -0.911516
H      4.701705   -3.673982    0.527599
H      4.377887   -4.569481   -1.052755
H     -3.175667   -1.046557    1.814609
H      3.215120    6.048506    0.219512
H      4.661506    5.033954    0.075577
H     -5.465092    0.435822   -0.525658
