49

C     -4.479451    2.395701    1.007638
C     -2.889012   -3.538098    0.092406
C     -3.826039    1.152186    0.349390
C     -2.903677   -2.021688   -0.185644
C      4.327091    0.500516   -0.090942
C      4.265681    1.757545   -0.651336
C      4.505785   -2.169265    1.126771
C     -2.463226    0.964717    0.929963
C     -1.796532   -1.392001    0.599990
C      4.255099   -3.434914    1.620473
C     -0.454671    1.326854   -1.249641
C      0.721989   -0.578178   -0.167058
C      1.266111    3.297926   -1.828069
C      0.822905    2.063197   -1.357454
C     -0.364713    0.428199   -0.047939
C      3.189887   -0.310079    0.076483
C      1.996208    0.209129   -0.346435
C      3.298108   -1.630596    0.658297
C      3.055368    2.260390   -1.071231
C      1.951847    1.457980   -0.901919
N      2.599928    3.385860   -1.644117
N      2.421717   -2.601791    0.900940
N     -1.640175   -0.040697    0.447645
O      2.966270   -3.642426    1.455835
H     -4.500796    3.242119    0.291159
H     -5.522482    2.142025    1.259965
H     -3.941932    2.655850    1.952334
H     -2.709684   -3.657689    1.161133
H     -2.154915   -4.003524   -0.562931
H     -3.905857   -3.897977   -0.134861
H     -3.783042    1.368927   -0.722843
H     -4.491978    0.304226    0.579365
H     -2.667254   -1.884144   -1.271626
H     -3.884919   -1.650258    0.058982
H      5.265814    0.082929    0.251466
H      5.167609    2.371313   -0.771913
H      5.476216   -1.706180    1.122316
H     -2.518875    0.990529    2.069852
H     -1.931945    1.963248    0.727467
H     -0.891755   -2.023836    0.364705
H     -1.989555   -1.708436    1.696893
H      4.956792   -4.129495    2.057403
H     -0.591524    0.648972   -2.133106
H     -1.331662    2.001363   -1.213058
H      0.771638   -1.101369    0.817323
H      0.618145   -1.208183   -1.042700
H      0.570548    4.019569   -2.263381
H     -0.006188    1.133717    0.785467
H      3.171101    4.205838   -1.910734
