43

C      2.163086   -1.661684   -0.223592
C      3.620389    1.048644    0.934908
C     -1.080567   -2.854470   -0.316582
C     -1.856987   -2.080788    0.696424
C     -2.096860   -0.134659    1.834573
C     -1.941915    1.153066    0.984201
C     -0.101932   -1.979718   -1.073854
C     -2.531035    1.928172   -1.225200
C      0.313571   -1.319451    1.302089
C     -1.171272   -1.132698    1.319225
C     -1.797685    0.810807   -0.451897
C     -1.472560    2.967797   -1.190375
C     -0.473388    0.892565   -1.071637
C      0.705249    0.313070   -0.430557
C      0.747541   -1.147146   -0.178244
O     -1.656880    4.208188   -1.199015
O      2.281005    3.003081   -0.229598
O      3.992484    1.913087   -1.532141
O     -0.272889    2.316950   -1.147594
O      1.816109    0.621939   -1.251663
S      2.882926    1.662098   -0.535781
H      2.127320   -2.721636   -0.549122
H      2.647242   -1.674989    0.775490
H      2.784101   -1.131770   -0.974801
H      4.234142    0.161320    0.668274
H      2.841186    0.794393    1.664392
H      4.312986    1.813144    1.319745
H     -1.728937   -3.401124   -0.998018
H     -0.453037   -3.588132    0.259147
H     -2.883417   -2.222098    0.949941
H     -3.145930   -0.477718    1.698370
H     -1.876931    0.186244    2.871216
H     -1.125784    1.779476    1.397147
H     -2.883920    1.709597    1.182077
H     -0.685195   -1.411460   -1.821488
H      0.521055   -2.700587   -1.682907
H     -3.437150    2.210484   -0.666817
H     -2.698810    1.646908   -2.266568
H      0.587952   -2.330459    1.602902
H      0.862214   -0.548417    1.856605
H     -2.381611   -0.102664   -0.672715
H     -0.586010    0.597766   -2.148749
H      0.900146    0.882872    0.522188
