44

C      4.730950    0.237461    0.249984
C      0.111065    2.193117    1.846020
C      4.019161   -0.323949   -0.976961
C      2.584433    0.221132   -0.989246
C      1.951781   -0.259904    0.299819
C     -3.195365    1.221528   -0.845436
C     -3.072695   -0.198101   -1.421086
C     -0.913752    1.888035   -0.421462
C      0.283570    1.676151    0.442575
C     -2.111370    1.249731    0.244499
C      0.548656    0.190980    0.433054
C     -2.853432   -0.969602   -0.140654
C     -0.500824   -0.596669    0.555090
C     -1.247733   -2.881428    0.111308
C     -1.897094   -0.151604    0.685652
N     -1.062824   -4.181274    0.110361
N     -2.463286   -2.319571   -0.357042
N     -0.235579   -2.012410    0.580812
O     -2.278179   -0.357449    2.027046
H      4.260066    1.182466    0.568004
H      4.636882   -0.488649    1.099039
H      5.802465    0.376475    0.039758
H     -0.861950    1.984875    2.289773
H      0.211720    3.306178    1.787949
H      0.979103    1.843655    2.435292
H      4.562782   -0.076875   -1.891427
H      3.995476   -1.433517   -0.883316
H      2.105364   -0.239889   -1.877813
H      2.610194    1.302460   -1.106174
H      2.132850   -1.325713    0.354472
H      2.514922    0.214999    1.135599
H     -3.032359    1.988480   -1.602373
H     -4.176281    1.306441   -0.346787
H     -2.242009   -0.265557   -2.126703
H     -4.044471   -0.521891   -1.845558
H     -1.151577    2.946921   -0.607398
H     -0.731924    1.390423   -1.390283
H      1.162712    2.189610    0.011679
H     -2.481207    1.920552    1.051004
H     -3.836163   -0.962669    0.384437
H     -0.164148   -4.578960    0.457676
H     -3.096996   -2.952091   -0.891225
H      0.650485   -2.388038    0.931262
H     -2.203420   -1.345862    2.165721
