32

C     -2.873165   -0.996483   -0.713713
C     -3.429346    1.256684   -0.068842
C      0.241116   -1.342132    1.594951
C      0.165131   -1.440111   -0.875754
C      2.112528    0.677340   -0.549370
C      3.322144    0.088271    0.151836
C     -0.280531    1.300943   -0.524866
C     -2.432683    0.086547   -0.160864
C      0.895275    0.685697    0.276946
C     -1.131463    0.368008    0.365538
C      0.025711   -0.569635    0.316621
O      3.569259    0.857938    1.287676
H     -3.914010   -1.046012   -1.091369
H     -2.311124   -1.887941   -0.830677
H     -3.241780    1.834669    0.846682
H     -4.449874    0.841856    0.002238
H     -3.279932    1.874956   -0.976909
H      0.680248   -0.702939    2.381681
H     -0.700559   -1.749811    2.004444
H      0.997386   -2.148659    1.382602
H     -0.107528   -2.478668   -0.600032
H     -0.358326   -1.130229   -1.776168
H      1.257386   -1.550371   -1.179384
H      2.393416    1.765882   -0.703459
H      1.976494    0.298691   -1.575710
H      4.174520    0.163674   -0.556937
H      3.109901   -0.948820    0.430754
H     -0.285146    1.008498   -1.584011
H     -0.402645    2.354858   -0.270956
H      0.996195    1.110602    1.261440
H     -1.152971    0.872954    1.404145
H      4.434373    0.543743    1.666135
