37

C     -3.550544    1.560485   -0.839489
C     -3.973563   -0.186423    0.740518
C      4.968576    0.218755    1.444702
C     -0.345899   -0.916548    1.511893
C     -1.222857   -1.421263   -0.742258
C      1.120004    0.212064   -1.525636
C      2.253526   -0.731288   -1.097823
C     -0.826934    1.534590   -0.760576
C     -3.049239    0.753683    0.073408
C      4.147570   -0.548341    0.448925
C      0.307562    0.587519   -0.340482
C     -1.628372    0.848204    0.355330
C     -0.752420   -0.336290    0.150429
O      4.458278   -1.732423    0.128492
O      3.041164   -0.004483   -0.146893
H     -4.615719    1.497101   -1.058191
H     -2.954619    2.289909   -1.388956
H     -4.038475   -1.172882    0.243943
H     -3.661902   -0.290147    1.801620
H     -5.028104    0.217229    0.729483
H      5.759155    0.746521    0.885321
H      4.344996    0.991002    1.940958
H      5.360040   -0.440641    2.246500
H     -0.415781   -2.015789    1.523206
H     -1.038538   -0.555347    2.309756
H      0.663977   -0.586266    1.810702
H     -2.126617   -1.141061   -1.320900
H     -1.417765   -2.379477   -0.174447
H     -0.405024   -1.684062   -1.443259
H      0.564619   -0.171251   -2.388500
H      1.595009    1.169772   -1.899685
H      1.851249   -1.655131   -0.662734
H      2.898978   -0.989307   -1.944777
H     -0.611572    2.591335   -0.583075
H     -1.195588    1.316214   -1.777077
H      0.943806    1.064489    0.428781
H     -1.418978    1.359548    1.306203
