37

C     -2.761335   -0.362693    2.170812
C     -3.620338   -0.652294   -0.033710
C      4.753228    0.273563   -1.200657
C     -0.860711   -0.731984   -1.235486
C     -0.471650    1.705585   -1.576095
C      0.874657   -0.521867    1.218025
C      1.838961   -1.433883    0.554329
C     -0.617184    1.454571    1.347131
C     -2.667345   -0.011327    0.914325
C      3.339022   -0.121351   -0.935139
C      0.393876    0.651895    0.489153
C     -1.713595    0.982442    0.445112
C     -0.652994    0.576244   -0.546299
O      2.445565    0.315667   -1.670428
O      3.044112   -0.951468    0.103835
H     -2.122889    0.041744    2.924887
H     -3.498657   -1.094973    2.542847
H     -3.826555   -0.008411   -0.915113
H     -4.578836   -0.800196    0.531770
H     -3.330009   -1.664418   -0.356709
H      5.114311    0.964429   -0.388448
H      5.373540   -0.640358   -1.127857
H      4.855579    0.726906   -2.189877
H     -0.031270   -0.902592   -1.963699
H     -1.776962   -0.654111   -1.861881
H     -0.988793   -1.568457   -0.554055
H      0.485950    2.217899   -1.377682
H     -0.502646    1.300058   -2.607296
H     -1.267302    2.470668   -1.480707
H      1.420602   -0.129699    2.148137
H      0.047862   -1.139406    1.675437
H      1.341820   -1.934891   -0.335389
H      2.064696   -2.334218    1.222223
H     -0.606844    1.116724    2.387692
H     -0.446317    2.560158    1.285659
H      1.249211    1.380424    0.324296
H     -2.300761    1.896339    0.070857
