52

C      2.687150    1.532944    2.315265
C      4.750400    0.084219   -1.432986
C      2.494197    0.027926    2.356536
C      3.394563    0.311599   -1.969297
C     -2.743225    4.282173   -0.793080
C     -2.121700    3.019675   -0.750030
C     -4.320676    0.019452   -0.104986
C     -4.383921   -1.332009    0.126621
C      2.741026   -0.537994    0.933884
C      2.207929   -0.261774   -1.352303
C     -4.050533    4.091785   -0.482111
C      0.288270   -1.842829   -0.228494
C     -0.577111    0.538384   -0.206310
C     -1.548561   -3.609159   -0.113058
C     -0.943567   -2.331312    0.456333
C      0.494557   -0.426488    0.215551
C     -3.083264    0.687625   -0.210744
C     -1.920064   -0.041015   -0.074000
C     -3.253631   -2.065151    0.261955
C     -3.088423    2.129405   -0.412126
C     -2.055518   -1.390659    0.161068
N     -2.931532   -3.452518    0.429419
N      1.842710    0.072558    0.001936
O     -4.231644    2.827493   -0.262814
H      2.341783    1.953501    1.330370
H      2.148966    2.039087    3.138987
H      3.786139    1.771046    2.366989
H      5.025983   -0.961681   -1.197332
H      5.061998    0.831900   -0.671573
H      5.470987    0.326875   -2.294232
H      3.341660   -0.380081    2.982176
H      1.571881   -0.267772    2.809411
H      3.418533   -0.074720   -3.048572
H      3.276758    1.434094   -2.165255
H     -2.251465    5.213159   -1.033092
H     -1.093406    2.865946   -0.969579
H     -5.225835    0.597712   -0.213221
H     -5.336948   -1.855528    0.210194
H      3.802040   -0.495648    0.706982
H      2.531491   -1.637567    1.089173
H      1.327472    0.063695   -1.992545
H      2.219319   -1.398918   -1.376303
H     -4.773960    4.914824   -0.441246
H      1.162254   -2.442483    0.023115
H      0.059503   -1.915367   -1.330063
H     -0.356651    0.846389   -1.256642
H     -0.505591    1.378424    0.512696
H     -1.078024   -4.466973    0.331284
H     -1.594121   -3.576004   -1.217257
H     -0.799691   -2.441606    1.561540
H      0.353829   -0.485304    1.352054
H     -3.532334   -4.171327    0.835363
