35

C     -1.388746   -1.422527   -0.884748
C     -0.367537   -2.251596   -0.112688
C     -0.931740    0.464935    0.522138
C      1.356993    0.946613    1.079835
C      1.833178   -1.354122   -0.492331
C     -2.000797   -0.552205    0.144734
C      0.723206   -1.418503    0.517150
C      0.286234   -0.128640    1.102705
C      2.284481    0.884526   -0.033142
C     -3.223885    0.187551   -0.137765
C      3.343433    1.875188    0.064291
N      2.892449   -0.433269   -0.191458
N     -3.305675    1.529756   -0.417361
N     -4.461714   -0.234781   -0.050562
N     -4.578484    1.820073   -0.482226
N     -5.343265    0.748295   -0.278060
O      3.339381    2.987485   -0.548551
O      4.476531    1.624091    0.843466
H     -0.880112   -0.780412   -1.628498
H     -2.087811   -2.139385   -1.326786
H     -0.937601   -2.830920    0.645347
H      0.070938   -2.965961   -0.821346
H     -1.390233    1.173258    1.256000
H     -0.718656    1.073988   -0.379622
H      1.947112    0.993095    2.029848
H      0.853735    1.969763    1.031214
H      2.289227   -2.380772   -0.533145
H      1.454626   -1.101012   -1.498276
H     -2.178084   -1.228079    1.062216
H      1.124368   -2.068873    1.365401
H      0.081045   -0.270024    2.190354
H      1.783909    1.091172   -1.053209
H      3.277108   -0.648256    0.799225
H     -4.999925    2.794125   -0.639334
H      5.376314    2.045421    0.571614
