41

C     -5.925361    0.954715    0.155548
C      0.282478   -2.477120    1.600762
C     -4.648251    1.747934    0.161788
C     -3.483656    0.796614   -0.106950
C     -3.448145   -0.246394    0.972959
C     -2.322170   -1.212852    0.739254
C      4.821352    1.704708    0.958258
C      5.787122    1.786953   -0.018960
C     -1.013452   -0.507904    0.741640
C      3.716482    0.904639    0.793624
C      5.596333    1.043611   -1.144584
C      0.181599   -1.417713    0.526712
C      3.523032    0.135582   -0.377677
C      4.466414    0.212017   -1.335415
C      2.308093   -0.647211   -0.503420
N      4.401265   -0.495781   -2.542543
O      1.917835   -1.330651   -1.453768
O      3.843499   -1.678193   -2.808804
O      4.950288    0.070195   -3.554802
O      1.390133   -0.676286    0.584410
H     -6.744664    1.647074   -0.135719
H     -5.844402    0.167679   -0.638687
H     -6.113000    0.529261    1.155988
H     -0.561333   -3.180659    1.617221
H      0.472297   -2.006585    2.598038
H      1.195827   -3.077477    1.390053
H     -4.489992    2.266444    1.132139
H     -4.623994    2.513195   -0.629589
H     -3.628776    0.307066   -1.089612
H     -2.551841    1.386629   -0.159686
H     -3.286426    0.269873    1.958189
H     -4.419337   -0.771967    1.067985
H     -2.408767   -2.003146    1.508207
H     -2.514149   -1.751042   -0.235934
H      4.967183    2.302510    1.871714
H      6.645445    2.432629    0.145637
H     -0.991742    0.177570   -0.160217
H     -0.853622    0.120945    1.621993
H      2.954465    0.836049    1.556733
H      6.343752    1.095608   -1.923115
H      0.108187   -1.928518   -0.448008
