55

C     -1.228431    1.708664   -0.296104
C     -3.313118   -2.281657    0.377145
C      4.773979   -0.747133    0.819556
C     -2.940198    1.107647    1.924671
C      2.801226    1.356283    1.242025
C      1.308792    1.613137    1.309652
C     -0.733889   -1.591643   -0.628825
C     -1.434353    1.044097    1.978629
C     -3.604377   -0.051374    1.319208
C      0.399819   -0.914326   -1.316387
C      2.067486    0.950564   -1.078661
C      2.395676   -1.120958    0.106197
C      3.278490    1.030382   -0.137864
C     -1.468955   -0.738359    0.366173
C      0.600622    0.399492    0.821532
C     -3.469160   -0.455916   -1.124217
C     -0.880915    0.599423    0.603992
C     -2.951543   -0.772267    0.203609
C      3.696027   -0.432246   -0.161593
C      1.291700   -0.171770   -0.385595
O     -2.712751   -0.143492   -2.059384
O     -4.829089   -0.503256   -1.358171
O      4.058836   -0.712926   -1.482135
H     -2.325669    1.876045   -0.291228
H     -0.829870    2.653074    0.153857
H     -0.860520    1.695444   -1.316968
H     -3.226572   -2.793488   -0.604264
H     -4.377507   -2.334974    0.673781
H     -2.647971   -2.728866    1.129864
H      4.954930    0.047128    1.569267
H      5.735906   -0.823991    0.237284
H      4.609376   -1.744097    1.253386
H     -3.274233    1.182495    3.003015
H     -3.315451    2.062705    1.475130
H      3.312566    2.279603    1.590649
H      3.025262    0.562653    1.984435
H      1.073473    1.724508    2.405134
H      1.108688    2.535028    0.775887
H     -0.309555   -2.537570   -0.174563
H     -1.469058   -1.975420   -1.365496
H     -1.082606    0.396228    2.782110
H     -1.064903    2.081782    2.112670
H     -3.856519   -0.795153    2.129565
H     -4.617243    0.279890    0.946438
H      1.027575   -1.729843   -1.789308
H      0.079625   -0.309920   -2.216003
H      2.402529    0.572612   -2.069213
H      1.521576    1.887664   -1.114018
H      2.251009   -1.332341    1.193424
H      2.348590   -2.093650   -0.422797
H      4.052065    1.695268   -0.521441
H     -1.312129   -1.290280    1.359614
H      0.676824   -0.369755    1.630142
H     -5.209930    0.050876   -2.132319
H      4.493871    0.103976   -1.862904
