45

C      0.121414    2.719131   -1.565741
C      4.183591    1.638500   -0.520046
C     -2.739337   -3.360581   -0.992296
C     -2.422223    2.557127   -0.886133
C     -1.419861    3.069308    0.179125
C     -3.032410    0.020184   -0.565890
C      2.276424   -2.376382    1.364015
C      1.875168    0.152543    0.466072
C     -2.299884    1.108371   -0.606625
C      0.784753   -0.528099    0.923323
C      0.997258   -1.811390    1.378121
C      3.363617   -1.670572    0.896997
C      3.167868   -0.387461    0.440207
C     -2.299927   -1.240775   -0.188546
C     -0.580758    0.102133    0.916781
C     -0.831938    0.921690   -0.303682
C     -1.674165   -0.879262    1.157459
C     -0.126212   -2.582669    1.900102
N     -0.264646    2.243240   -0.219361
O      4.624741   -2.254196    0.893129
O     -0.013640   -3.756583    2.331266
O      4.261459    0.318062   -0.027403
O     -3.112656   -2.335087   -0.129412
O     -1.355720   -1.986998    1.915029
H     -0.215989    2.022766   -2.348855
H      1.226367    2.789631   -1.612833
H     -0.253382    3.753526   -1.732232
H      3.296853    1.653580   -1.206687
H      5.093659    1.958214   -1.035506
H      3.942830    2.310378    0.329859
H     -2.747785   -3.033309   -2.054744
H     -3.510374   -4.154100   -0.904105
H     -1.751721   -3.773723   -0.770222
H     -2.072754    2.847562   -1.887131
H     -3.411978    2.972014   -0.694490
H     -1.229905    4.134854    0.074447
H     -1.783025    2.722748    1.145889
H     -4.062648    0.025072   -0.781833
H      2.355678   -3.388165    1.737895
H      1.806736    1.160339    0.099095
H     -1.498452   -1.403726   -0.926205
H     -0.545383    0.802094    1.806235
H     -0.414820    0.413248   -1.233330
H     -2.486468   -0.315238    1.715213
H      4.779645   -3.177998    1.219484
