41

C      5.310500    1.413172    0.264050
C     -0.235612   -2.059004    2.089916
C      5.212205    0.290697   -0.721681
C      3.890314   -0.453112   -0.624865
C      2.728106    0.489786   -0.892950
C      1.395601   -0.211360   -0.811109
C     -5.592016    0.057047   -1.828484
C     -5.876359    1.236398   -1.185868
C      1.149933   -0.810739    0.529791
C     -4.413305   -0.574587   -1.528005
C     -4.988801    1.734243   -0.282477
C     -0.164874   -1.515002    0.655925
C     -3.481272   -0.085704   -0.602231
C     -3.773651    1.084232    0.027537
C     -2.305604   -0.893837   -0.380595
N     -2.910833    1.662987    0.973671
O     -2.173607   -1.962327   -1.078148
O     -3.530379    2.361215    2.017760
O     -1.689538    1.666893    0.997571
O     -1.275151   -0.693232    0.488133
H      6.306904    1.880466    0.139006
H      5.295188    1.008812    1.305780
H      4.560806    2.209916    0.102763
H     -0.109026   -1.150475    2.739588
H      0.551569   -2.800916    2.223655
H     -1.255571   -2.432210    2.223517
H      6.049484   -0.404917   -0.546236
H      5.333143    0.725047   -1.741826
H      3.929033   -1.274241   -1.356167
H      3.847572   -0.837354    0.416980
H      2.889829    0.882127   -1.921835
H      2.741151    1.348917   -0.220788
H      1.394153   -0.992808   -1.613635
H      0.629510    0.523306   -1.122777
H     -6.296756   -0.337984   -2.546608
H     -6.816012    1.747765   -1.419389
H      1.276813   -0.027709    1.304540
H      1.973594   -1.550403    0.719311
H     -4.242010   -1.514807   -2.075143
H     -5.190616    2.669956    0.242158
H     -0.144413   -2.410251    0.006361
