30

C      3.415653    1.051111   -0.075313
C     -2.837550    0.998215   -0.154101
C     -1.402686   -0.042079   -1.632442
C     -2.277532   -1.195729    0.275556
C      1.038851   -1.212125    0.808709
C     -0.709583    0.614006    0.575307
C      2.577693   -0.085273   -0.569789
C      0.673359    0.172869    0.456487
C      2.473052   -1.207117    0.393479
N     -1.718494    0.027600   -0.218206
O      3.349304   -1.945428    0.756521
O      1.243396    0.324051   -0.807837
H      3.321444    1.260222    0.990825
H      3.084095    1.972415   -0.615593
H      4.475610    0.895524   -0.353018
H     -3.739533    0.604225   -0.614164
H     -2.934290    1.252220    0.918950
H     -2.491982    1.939520   -0.656122
H     -2.344613   -0.382527   -2.142806
H     -0.633205   -0.776042   -1.871067
H     -1.210802    0.978565   -1.994892
H     -1.800527   -2.112660   -0.118479
H     -2.361281   -1.149768    1.360552
H     -3.334478   -1.255690   -0.122708
H      1.031409   -1.436757    1.891963
H      0.564180   -1.998879    0.200407
H     -0.711845    1.724604    0.347092
H     -1.030735    0.557843    1.637741
H      2.994686   -0.421838   -1.543196
H      1.296403    0.848922    1.120284
