31

C      4.171426    0.003491    0.210433
C     -1.868679   -0.603825   -1.074707
C     -2.722424   -1.041532    1.124106
C     -2.421676    1.117621    0.354562
C      0.745380    0.766989   -0.947147
C     -0.551089   -0.155835    0.907239
C      2.766915   -0.234644   -0.271279
C      0.640627   -0.383481    0.032870
C      2.242819    0.954209   -1.026643
N     -1.813919   -0.227568    0.293826
O      2.887083    1.818914   -1.550445
O      1.845740   -0.285561    0.773898
I      0.000000    0.000000    0.000000
H      4.180645    0.927388    0.798107
H      4.491071   -0.890232    0.764915
H      4.799327    0.173144   -0.689261
H     -1.097021   -1.274695   -1.435502
H     -1.914574    0.273321   -1.726218
H     -2.844946   -1.156659   -1.220306
H     -2.576077   -0.673113    2.172008
H     -2.518652   -2.112747    1.013117
H     -3.756668   -0.757388    0.848038
H     -2.132724    1.675532   -0.584406
H     -3.520063    0.948341    0.233743
H     -2.151950    1.648559    1.267759
H      0.263654    1.687344   -0.591072
H      0.454411    0.474945   -1.979529
H     -0.495692   -0.960096    1.700860
H     -0.429795    0.786241    1.481579
H      2.647918   -1.141765   -0.867803
H      0.678934   -1.356896   -0.449953
