53

C      5.460122   -0.070401    0.293002
C      0.118916   -0.607335   -2.201352
C      0.438008    1.667970   -1.550515
C     -3.917813    0.644937    1.451476
C     -3.849864    2.024039   -0.440060
C     -2.763841   -3.530841    0.679188
C     -1.893136   -2.861444    1.505628
C     -3.136384   -2.934975   -0.505966
C     -1.406007   -1.629552    1.159828
C     -2.631577   -1.699825   -0.825380
C      3.244429    0.024442    1.277866
C      1.773855    0.460824    1.071122
C      3.585643    0.869514   -0.966420
C      4.196391    0.760988    0.407035
C     -1.740741   -0.988187   -0.005395
C      1.333255   -0.146540   -0.199204
C      2.563532   -0.201282   -1.074734
C     -1.208489    0.293194   -0.403071
C      0.180922    0.307359   -0.944676
N     -3.276262    1.770913    0.890978
O      2.756768   -1.097694   -1.875984
O     -1.162425    2.953152    0.106891
O     -0.941316    1.434011    2.051374
S     -1.589651    1.599373    0.702310
H      5.359107   -0.805441   -0.549892
H      6.337073    0.554192    0.042133
H      5.704251   -0.587124    1.246675
H     -0.892538   -0.459142   -2.632923
H      0.292015   -1.619450   -1.838271
H      0.886168   -0.253682   -2.942767
H      0.891870    2.372902   -0.830145
H      1.179120    1.537192   -2.365445
H     -0.461966    2.081932   -2.047402
H     -3.314748    0.127885    2.227188
H     -4.303963   -0.019666    0.659330
H     -4.869119    1.048605    1.945578
H     -4.656146    2.788691   -0.387739
H     -4.318812    1.099014   -0.841215
H     -3.092180    2.395913   -1.146572
H     -3.118597   -4.503817    1.002439
H     -1.590873   -3.336194    2.459047
H     -3.833608   -3.464960   -1.173283
H     -0.732454   -1.145432    1.839983
H     -2.970110   -1.283392   -1.781725
H      3.517222    0.255476    2.344064
H      3.306662   -1.078703    1.196513
H      1.801420    1.546753    1.107313
H      1.324687   -0.008715    1.992421
H      4.397567    0.710727   -1.704759
H      3.196928    1.889502   -1.161632
H      4.437737    1.757084    0.831443
H      1.225914   -1.257735    0.074191
H     -1.836961    0.614947   -1.320759
