41

C      5.600939   -0.944855   -0.577664
C      4.503634   -1.060381   -1.399306
C      5.524625   -0.159234    0.544028
C      3.326940   -0.393173   -1.105366
C      4.358224    0.515469    0.855197
C      1.993741    1.089095    0.306460
C     -3.128420    3.119241   -0.295681
C     -4.046116    1.313549    0.934273
C     -1.365111   -1.116811   -0.964354
C      3.275611    0.390097    0.027635
C     -4.143368    2.608537    0.486226
C     -2.013157    2.394686   -0.654302
C     -2.924998    0.575388    0.577301
C     -0.749102    0.216622   -0.518606
C     -2.082847   -1.762551    0.199367
C      1.073413    0.288376    1.113201
C     -1.921848    1.101638   -0.203297
C     -3.070175   -2.722858   -0.359349
Cl    -5.519940    3.629870    0.879761
Cl    -0.732693    3.026244   -1.638092
N     -2.774882   -0.780446    1.006176
N     -0.064759   -0.035591    0.689607
O      1.447059   -0.138314    2.389349
O     -4.298422   -2.605882   -0.104781
O     -2.625572   -3.758519   -1.170670
H      6.529717   -1.462382   -0.796146
H      4.521567   -1.670853   -2.295432
H      6.397263   -0.071788    1.190869
H      2.458672   -0.480369   -1.749245
H      4.266913    1.145501    1.736904
H      2.206768    2.056013    0.829735
H      1.529282    1.328173   -0.664573
H     -3.199369    4.140920   -0.652686
H     -4.801370    0.853092    1.548968
H     -0.578492   -1.787893   -1.360800
H     -2.092723   -0.856736   -1.758445
H     -0.194494    0.633031   -1.354638
H     -1.334682   -2.293510    0.809555
H     -3.171128   -1.060900    1.904561
H      1.126043   -1.054985    2.731012
H     -3.306743   -4.207510   -1.794081
