27

C      1.706906    1.324031   -0.031665
C      1.624751   -1.015928    0.412843
C     -0.523322    0.226875    0.291047
C      3.078902    1.288769   -0.096580
C      2.997179   -1.023820    0.342758
C     -1.135196   -0.022628   -1.074084
C      0.954630    0.194004    0.220161
C      3.733498    0.094313    0.094003
C     -2.644691    0.008648   -1.013888
C     -3.057726   -1.066741   -0.065490
N     -3.181250    1.248290   -0.580385
O      5.123319    0.061057    0.027783
O     -2.712830   -2.271635   -0.220937
O     -3.841357   -0.775457    1.028149
H      1.189399    2.253774   -0.179602
H      1.035319   -1.912918    0.612350
H     -0.856364    1.169102    0.730570
H     -0.841642   -0.599848    0.949911
H      3.649320    2.198527   -0.297495
H      3.498041   -1.978095    0.496186
H     -0.784307   -1.009515   -1.439462
H     -0.782896    0.732203   -1.806694
H     -3.076258   -0.250902   -1.988279
H     -3.495249    1.296378    0.397450
H     -2.714163    2.093239   -0.936555
H      5.587711   -0.824351    0.170148
H     -4.531726   -1.437373    1.406647
