15

C      0.630257   -0.237811   -0.752026
C     -0.617120    0.495333   -0.290692
C      1.469947   -0.674103    0.375498
C     -1.438789   -0.384726    0.579088
O     -0.218305    1.625925    0.387992
O      0.972358   -1.372847    1.281468
O      2.838447   -0.340658    0.497957
O     -1.458389   -0.127477    1.815230
O     -2.173161   -1.453568    0.107612
K      0.000000    0.000000    0.000000
K      0.000000    0.000000    0.000000
H      0.335686   -1.183375   -1.305651
H      1.195006    0.417196   -1.411907
H     -1.212252    0.750788   -1.196965
H     -0.323685    2.485322   -0.087605
