55

C      4.060356   -2.192641   -0.706335
C      1.029462    4.243116   -0.734875
C     -2.671238   -1.169007   -1.048497
C     -0.485226   -1.051751   -2.004189
C     -3.130681    1.142052    1.061878
C      2.739448    0.860526    0.682466
C      3.006894   -0.112842   -0.416096
C      2.206749    2.206152    0.233190
C      1.748122   -2.219369    0.389952
C      0.150370    2.083766   -1.312710
C      0.407764   -1.952723    1.016354
C     -1.031746    1.625629   -0.572137
C     -1.953617   -2.229640    1.140396
C     -2.187470   -0.992820    1.908128
C      2.757438   -1.588711   -0.124213
C      1.281650    2.724800   -0.494930
C     -0.777044   -2.104902    0.141815
C     -0.983461    0.294730    0.088846
C     -1.202343   -0.922882   -0.702773
C     -1.883378    0.321543    1.294134
O     -1.153662    1.067623    2.263863
H      4.892881   -1.399312   -0.571971
H      3.991985   -2.254979   -1.810971
H      4.522032   -3.038211   -0.297734
H      1.831826    4.841486   -1.100694
H      0.317996    4.316780   -1.644441
H      0.366825    4.654655    0.052503
H     -2.949464   -0.523226   -1.908065
H     -2.737595   -2.242635   -1.325577
H     -3.366283   -0.969811   -0.246795
H     -0.957023   -0.424779   -2.794150
H      0.599153   -1.042184   -1.972637
H     -0.735459   -2.104148   -2.362195
H     -3.356442    1.389645    0.032797
H     -4.041628    0.588816    1.444371
H     -3.157598    2.098571    1.626185
H      3.754662    0.949528    1.190111
H      2.156547    0.435709    1.530859
H      2.440570    0.287568   -1.283146
H      4.067176    0.062259   -0.774921
H      2.988023    2.837469    0.858970
H      1.664566   -3.400255    0.413427
H      0.449175    1.338141   -2.045620
H     -0.256672    2.858908   -2.058291
H      0.345117   -1.160849    1.780903
H      0.250630   -2.845987    1.754307
H     -1.879010    1.607459   -1.299186
H     -1.323948    2.441881    0.154166
H     -2.839409   -2.693206    0.659670
H     -1.589106   -3.061613    1.822544
H     -3.288075   -0.985995    2.181215
H     -1.701680   -1.116644    2.924359
H     -0.759173   -3.045771   -0.400675
H      0.092846    0.194601    0.380398
H     -1.721832    1.373482    2.986017
