29

C      2.317708    1.652114    0.353860
C      1.609799   -1.142927    1.286451
C     -0.108880   -1.493636   -1.687090
C     -1.316718   -1.687405    0.431273
C      0.129054    1.387569   -1.061073
C     -1.929257    1.142524    0.331587
C      1.137534    0.853419   -0.075243
C      0.788257   -0.369336    0.304335
C     -1.098851    0.517176   -0.748646
C     -0.452734   -0.761831   -0.381854
O     -1.276311    1.319671    1.516272
H      2.813167    2.009632   -0.589812
H      3.058457    0.998156    0.881301
H      2.009555    2.517524    0.986928
H      1.118171   -2.121058    1.473425
H      2.574909   -1.355721    0.784750
H      1.765650   -0.586610    2.228171
H      0.753499   -1.011055   -2.185034
H      0.018658   -2.569910   -1.506960
H     -0.985139   -1.330829   -2.358742
H     -1.168626   -1.538736    1.533298
H     -0.976887   -2.728625    0.228108
H     -2.378880   -1.552864    0.132870
H      0.439690    1.185659   -2.087276
H     -0.118568    2.435524   -0.848095
H     -2.280004    2.137352   -0.020781
H     -2.837950    0.534039    0.484894
H     -1.696315    0.397530   -1.664749
H     -1.908987    1.162655    2.257833
