46

C      5.117279   -0.277042   -0.198838
C     -2.400975   -2.056056    2.891243
C      4.363829    1.011709   -0.068696
C     -2.875741   -1.805818    1.457103
C      2.851555    0.797167   -0.361337
C     -2.660523    1.286057   -1.633420
C     -1.363188    1.285553   -2.324064
C      2.328171   -0.177177    0.609245
C     -3.054151    0.176878   -0.763000
C     -0.108221    1.297892   -1.549027
C     -2.250169   -1.068750   -0.769356
C      0.926618   -0.609689    0.581077
C     -0.223085    1.580839   -0.090257
C     -1.677870   -1.287311    0.639564
C     -0.084900    0.424131    0.815469
O     -1.338013   -0.096291    1.193835
H      5.052349   -0.819806    0.761265
H      6.192991   -0.012518   -0.361034
H      4.752358   -0.869450   -1.061898
H     -3.250977   -2.490727    3.450387
H     -1.498077   -2.687456    2.903535
H     -2.185910   -1.047567    3.319626
H      4.475856    1.469043    0.916456
H      4.781831    1.717910   -0.815107
H     -3.319376   -2.688681    1.004768
H     -3.613728   -0.980801    1.533709
H      2.761580    0.415625   -1.414252
H      2.457869    1.820869   -0.324712
H     -2.825691    2.287373   -1.129182
H     -3.428595    1.354536   -2.473490
H     -1.395496    0.442879   -3.084381
H     -1.389193    2.192003   -3.011178
H      3.021383   -1.089739    0.605821
H      2.549486    0.238354    1.652554
H     -3.176364    0.574029    0.292637
H     -4.125142   -0.139835   -0.979915
H      0.411183    0.316480   -1.771043
H      0.589510    2.050885   -1.980218
H     -2.874652   -1.992891   -0.984296
H     -1.452582   -1.131122   -1.509269
H      0.813268   -1.342022    1.455462
H      0.694592   -1.292110   -0.287424
H     -1.279624    1.991576    0.129502
H      0.391830    2.428739    0.254362
H     -0.913418   -2.079177    0.654797
H      0.232121    0.881510    1.822976
