66

C     -3.703600    2.578078   -0.151826
C     -4.463279    0.543457    0.930715
C      2.431691   -2.834993    0.350883
C     -2.526987   -1.764898   -0.080028
C      0.092693   -1.259692    1.964589
C     -3.066331    0.399771   -2.508656
C     -1.630688    1.001495    1.297905
C      5.213621    1.384962   -1.084991
C     -4.161679    0.615701   -1.532774
C     -2.034719   -0.585736   -2.128099
C     -0.123112    1.069274    1.190252
C      4.896491    2.554045   -1.786153
C      2.763565   -0.005187    1.406615
C      0.395307   -1.986849   -0.739709
C      3.373415    2.311022   -0.293733
C      2.563317   -1.472637   -1.655432
C      4.231195    1.258080   -0.147671
C      4.150832    0.170610    0.860733
C     -2.159563    0.723997   -0.094267
C      1.777747   -0.376536    0.412782
C     -0.275929   -0.702823   -0.480005
C     -3.600872    1.040977   -0.193527
C      1.851883   -1.646238   -0.337909
C     -1.735256   -0.621591   -0.618380
C      0.314092   -0.326349    0.851640
O      3.118310   -2.391642   -2.230404
O      4.578171   -1.011984    0.249761
O      3.817297    3.066761   -1.296999
H     -3.694459    2.941634    0.884213
H     -4.675541    2.883178   -0.595455
H     -2.910074    3.000801   -0.785635
H     -3.932089    0.396488    1.886358
H     -5.057230   -0.369169    0.627337
H     -5.272265    1.298706    1.168539
H      1.659347   -3.676102    0.391588
H      3.223227   -3.285328   -0.288391
H      2.850115   -2.690354    1.340391
H     -3.371889   -2.071192   -0.766724
H     -3.007654   -1.581492    0.893629
H     -1.926435   -2.690558    0.038159
H      0.652452   -2.197051    1.974301
H      0.395544   -0.721435    2.911880
H     -0.964401   -1.545537    2.142972
H     -2.636836    1.396550   -2.768551
H     -3.539929    0.044232   -3.470670
H     -1.909032    0.224004    2.007324
H     -2.014580    2.008632    1.573881
H      6.079770    0.762836   -1.299235
H     -4.831644    1.405878   -1.933463
H     -4.833391   -0.285394   -1.417935
H     -1.107993   -0.354800   -2.711969
H     -2.325517   -1.617837   -2.484556
H      0.109047    1.720514    0.331619
H      0.342723    1.453127    2.121653
H      5.458754    2.971596   -2.609027
H      2.792509   -0.624240    2.330596
H      2.477788    1.020137    1.805668
H      0.101749   -2.797557   -0.023585
H      0.342579   -2.338262   -1.789731
H      2.484623    2.585721    0.233360
H      2.593057   -0.497781   -2.126050
H      4.833756    0.385411    1.733453
H     -1.619003    1.469842   -0.755050
H      1.832383    0.433622   -0.423283
H      0.164852    0.043417   -1.211312
H      5.148081   -0.833313   -0.518109
