52

C      6.905343    1.764253    0.107922
C     -2.489523    3.768595    2.187670
C     -3.480441   -2.790470   -0.294579
C     -2.871194   -2.606528   -2.690424
C     -4.134923    0.064738   -0.287112
C     -3.941996   -0.731800   -1.542037
C      5.333771    0.154787    1.116536
C     -0.231994    0.202372    0.024941
C      3.025605   -0.586731   -0.468350
C      5.605639    1.372190    0.732536
C     -2.668737    2.310957    1.942088
C      0.570360   -1.049882   -0.340490
C     -1.663789   -0.240045   -0.173769
C      1.830608   -0.711350   -1.015235
C     -2.866101    0.351034    0.454753
C      3.977785    0.126310    1.683286
C     -1.658236   -1.248998   -1.008106
C     -0.296996   -1.588987   -1.449119
C      4.479665    2.215831    1.009574
C      1.487557   -0.538394   -2.433543
C     -2.993471   -1.880406   -1.372803
O     -2.803805    1.556184    2.936681
O      4.434449    3.464413    0.749650
O      2.307188   -0.199613   -3.322573
O      3.222456   -0.775935    0.889076
O     -2.694552    1.747680    0.694457
O      3.506892    1.436310    1.585499
O      0.128988   -0.819198   -2.556869
H      7.004659    2.856357    0.231404
H      6.913637    1.507720   -0.975898
H      7.699001    1.207084    0.628704
H     -2.656897    4.289307    1.203285
H     -3.285200    4.127316    2.864743
H     -1.470255    4.007009    2.540307
H     -3.233529   -2.459695    0.725234
H     -3.164121   -3.855404   -0.485152
H     -4.602038   -2.823870   -0.368583
H     -2.644933   -3.677297   -2.493207
H     -2.031213   -2.204251   -3.309049
H     -3.819687   -2.559487   -3.279114
H     -4.889509   -0.492013    0.341520
H     -4.639037    1.016194   -0.563532
H     -4.930311   -1.165459   -1.836361
H     -3.600483   -0.126325   -2.401103
H      5.978028   -0.724554    1.046488
H     -0.078282    0.353007    1.113306
H      0.025286    1.061276   -0.594162
H      3.879624   -0.332595   -1.074996
H      0.674161   -1.729066    0.512249
H     -2.963731   -0.109701    1.465354
H      3.961448   -0.258722    2.729054
H     -0.147164   -2.674150   -1.612789
