54

C     -4.047981    3.000900    1.562506
C     -4.323313    3.311797   -0.764824
C      8.228299   -0.452679    0.606933
C     -4.448626   -3.923902   -1.264359
C     -3.118828   -4.253017   -1.177288
C     -4.764841   -2.608047   -1.081546
C     -2.178473   -3.302275   -0.919725
C     -3.800819   -1.630875   -0.818928
C      4.096214   -0.669223    0.214453
C      3.995220    1.610565   -0.382790
C      5.451012   -0.571986    0.336359
C      5.364557    1.714952   -0.261223
C     -2.878277    1.652751   -0.045800
C     -2.539531    0.464712    0.837098
C     -0.255137   -1.467169   -1.338983
C     -2.499233   -1.939308   -0.729464
C      3.336246    0.421900   -0.148543
C      6.110284    0.623319    0.100435
C     -1.336176   -1.100544   -0.587995
C      1.239370    0.031164    1.059842
C      1.869090    0.332430   -0.284580
C     -0.143436    0.545094    0.994444
N     -4.096284    2.310553    0.289814
N     -1.309523   -0.079262    0.358598
O      1.184246   -1.345110    1.264222
O     -0.344502    1.658766    1.555857
O      7.501520    0.699472    0.231741
S      1.365284   -0.824222   -1.544662
H     -3.022670    3.346315    1.814356
H     -4.504081    2.380642    2.348267
H     -4.662109    3.921182    1.454450
H     -3.671257    4.199635   -0.521417
H     -5.377192    3.600995   -0.785667
H     -3.995583    2.914926   -1.761496
H      9.312169   -0.287588    0.470808
H      7.946019   -1.281826   -0.073463
H      7.939888   -0.682002    1.650086
H     -5.217075   -4.687978   -1.471722
H     -2.837867   -5.311628   -1.322632
H     -5.821976   -2.334242   -1.148769
H     -1.132153   -3.648290   -0.835560
H     -4.165445   -0.637933   -0.749898
H      3.655983   -1.640502    0.416840
H      3.417729    2.498496   -0.673788
H      6.025764   -1.467382    0.628783
H      5.857064    2.657889   -0.450733
H     -2.914360    1.312797   -1.090078
H     -1.995708    2.348221    0.063747
H     -3.337731   -0.207380    1.094120
H     -2.291297    0.931084    1.886874
H     -0.457387   -2.318516   -1.954006
H      1.823089    0.512045    1.873742
H      1.472942    1.344114   -0.585566
H      0.296880   -1.673833    1.510058
