17

C      2.320024   -0.101104    0.000079
C      0.221873    0.008237    1.269391
C      0.830782   -0.104462    0.103182
C     -1.232833   -0.026287    1.057862
C     -0.160128   -0.227354   -0.984607
C     -1.416635    0.329044   -0.353233
O     -2.101146   -0.297073    1.894512
O     -0.382218   -1.567345   -1.325268
O     -1.343183    1.717817   -0.463870
H      2.683702   -0.831259    0.751838
H      2.645221   -0.321988   -1.024262
H      2.697373    0.896087    0.350769
H      0.693664    0.111725    2.251144
H      0.124565    0.370894   -1.875114
H     -2.337567   -0.083955   -0.790183
H     -1.059042   -1.985987   -0.720334
H     -2.184453    2.113010   -0.141905
