40

C     -3.747684   -0.774747    0.516032
C     -4.223651   -2.351709   -1.276258
C     -3.267343   -0.195013   -1.873676
C      4.380587    1.469181   -1.253503
C      5.031294    1.159954   -0.079897
C      3.010898    1.559919   -1.251786
C      4.306338    0.946561    1.074669
C      0.796224    1.467027   -0.185651
C      2.122955    0.818548    2.279855
C      2.286555    1.347559   -0.101949
C      2.937337    1.041201    1.058939
C      0.065139    0.701695    0.862258
C      0.945203   -0.053259    1.829341
C     -0.819601   -1.243472   -0.313975
C     -3.240394   -1.281467   -0.792951
N     -0.942786   -0.166055    0.312484
O      0.197772   -0.326907    2.967490
O      0.445087   -1.766986   -0.569583
O     -1.982437   -1.884626   -0.736796
H     -4.870526   -0.841634    0.587941
H     -3.350306   -1.305910    1.378983
H     -3.537391    0.328397    0.547143
H     -3.855251   -2.838085   -2.203068
H     -5.209211   -1.915742   -1.527246
H     -4.341338   -3.131089   -0.479778
H     -2.770354    0.698425   -1.421462
H     -4.279195   -0.003121   -2.231626
H     -2.624611   -0.547575   -2.717391
H      4.964662    1.638453   -2.171989
H      6.109357    1.082044   -0.052556
H      2.498485    1.807891   -2.195663
H      4.849392    0.698746    2.008880
H      0.564085    2.557662   -0.184962
H      0.516146    1.106602   -1.196829
H      2.672567    0.216242    3.042562
H      1.757115    1.783019    2.672578
H     -0.458313    1.487997    1.501036
H      1.404903   -0.957332    1.389477
H      0.472775   -1.159726    3.419446
H      1.185518   -1.172669   -0.976513
