52

C     -3.492516   -1.760156   -1.190253
C     -6.576266   -0.163925   -0.705230
C     -4.307006    1.964152    2.030966
C      8.503101    1.824338   -1.806106
C      5.794874   -1.789012   -0.026899
C      4.799976    0.333546   -0.173783
C      6.960063   -1.284797   -0.548488
C      5.994744    0.846002   -0.707729
C     -0.361515   -0.301473    2.602720
C     -1.595554    0.324721    2.614342
C     -3.229435    0.722988   -1.381352
C     -4.698011    1.071272   -1.556105
C     -0.946106   -1.161954    0.449826
C      4.660527   -0.984316    0.180200
C      7.088643    0.040275   -0.900689
C     -0.036908   -1.059427    1.493108
C     -2.169754   -0.528730    0.484268
C     -2.509317    0.230350    1.582059
C     -4.460841   -0.114130    0.431944
C      2.244604   -0.993315    0.841521
C     -3.289995   -0.469872   -0.457561
N      3.514539   -1.586615    0.729672
N     -5.386414    0.570017   -0.409769
N     -3.826781    0.786123    1.385351
O      2.039338    0.170822    0.434357
O      8.282654    0.493996   -1.420721
O      1.183791   -1.712651    1.418603
H     -4.019811   -2.515927   -0.595673
H     -3.965387   -1.577564   -2.185165
H     -2.485973   -2.178358   -1.416065
H     -6.906114   -0.656472    0.250360
H     -6.473350   -0.928263   -1.482943
H     -7.376506    0.555690   -0.975659
H     -4.169960    2.881006    1.397851
H     -3.729076    2.149812    2.959813
H     -5.365927    1.845961    2.351538
H      9.298872    1.938969   -2.554448
H      8.753562    2.399467   -0.887795
H      7.562985    2.248090   -2.266633
H      5.722893   -2.852736    0.244288
H      3.965653    1.017550   -0.035266
H      7.815831   -1.945523   -0.692239
H      6.036407    1.886131   -0.963572
H      0.292425   -0.182308    3.437794
H     -1.879174    0.935333    3.487016
H     -2.797623    0.428998   -2.358255
H     -2.651748    1.554690   -0.960246
H     -5.098176    0.692031   -2.515892
H     -4.803590    2.191569   -1.549294
H     -0.630405   -1.774801   -0.397483
H     -4.875777   -1.010539    0.925442
H      3.599532   -2.571033    1.097843
