59

C      7.715031   -0.686240    1.574158
C      4.895897   -1.561865   -3.107761
C     -4.229566    2.258535   -2.415172
C     -4.651391   -3.329321    2.154361
C     -7.544556   -0.494119   -0.330487
C      3.634322    0.150840    1.444093
C      4.987109   -0.123802    1.496230
C      3.584937   -0.551502   -0.808694
C     -3.136734    0.690490   -0.408733
C     -3.275463   -1.167201    1.111000
C      1.609444    2.603465    0.998698
C     -0.201356    1.063725   -0.944666
C      2.910790   -0.058325    0.290229
C     -2.578815   -0.072016    0.582343
C      0.945988    1.278590    1.098882
C     -0.482869    1.351601    0.509277
C      5.632768   -0.619641    0.368911
C      4.918404   -0.837789   -0.805842
C     -4.411265    0.380338   -0.903200
C     -4.528555   -1.461008    0.615477
C     -1.249646    0.252204    1.083633
C      1.490198    0.218863    0.163604
C     -5.088172   -0.693811   -0.381115
O      1.732937    3.066134   -0.308106
O     -0.765419   -0.430492    2.021183
O      6.993838   -0.909556    0.378452
O      5.604715   -1.334044   -1.906186
O     -4.959719    1.161900   -1.905525
O     -5.229772   -2.544937    1.131706
O     -6.337883   -1.006749   -0.858331
O      1.158007    0.758106   -1.080035
H      8.794874   -0.844968    1.360670
H      7.545865    0.371847    1.861737
H      7.400039   -1.381190    2.378492
H      3.942865   -2.127539   -2.934844
H      5.493061   -2.235094   -3.787125
H      4.640392   -0.655047   -3.655400
H     -3.296908    1.923522   -2.914715
H     -3.926319    2.975061   -1.622338
H     -4.889917    2.836233   -3.111372
H     -3.614438   -3.657118    1.863548
H     -4.545870   -2.673157    3.048087
H     -5.272666   -4.203292    2.395133
H     -8.233453   -0.364013   -1.204959
H     -8.020071   -1.215472    0.371686
H     -7.418657    0.493582    0.142531
H      3.179820    0.528312    2.355577
H      5.572296    0.040260    2.412301
H      3.042456   -0.732553   -1.749449
H     -2.629854    1.544495   -0.832322
H     -2.791372   -1.735639    1.890890
H      2.540020    2.646850    1.551099
H      0.923518    3.342780    1.513198
H     -0.446638    1.924580   -1.609703
H     -0.738335    0.170360   -1.327976
H      0.957673    0.908815    2.115480
H     -0.912819    2.351917    0.674692
H      0.910085   -0.696554    0.344687
H      2.651147    3.110652   -0.627744
