57

C      3.036425   -0.102180    1.381033
C      4.646487    0.371220   -0.386767
C     -3.581477    0.313772    1.595184
C      0.167267    1.234610   -1.101547
C      0.227926   -0.888533   -0.084789
C     -1.188873    1.339623   -0.842478
C     -1.129781   -0.789129    0.177362
C      2.321807    0.043783   -1.016096
C      3.203139    0.594697    0.070151
C     -3.318950    0.414517    0.093576
C      0.894145    0.127135   -0.730133
C     -1.863806    0.316836   -0.191687
C     -4.068557   -0.697612   -0.549390
O     -3.439477   -1.545898   -1.220377
O     -5.443097   -0.807580   -0.417448
C     -0.736217   -0.886144    0.054909
C     -1.296083    0.411637   -0.435617
C      0.665241   -1.202697   -0.179188
C     -2.807618    0.492018   -0.098246
C      1.792950   -0.446714    0.365519
C      1.999439    0.944157    0.071067
N     -2.969792    0.403247    1.334565
N      2.997727   -1.179302   -0.186556
O      1.476989    1.859704    0.734093
O      2.808396    1.334850   -0.989350
H      3.480934   -1.115493    1.309589
H      1.990390   -0.156829    1.721053
H      3.592813    0.477076    2.149172
H      4.725913   -0.733097   -0.602220
H      4.866020    0.964123   -1.301617
H      5.349265    0.615683    0.409430
H     -2.680191    0.649280    2.127293
H     -4.421113    0.991026    1.829665
H     -3.884804   -0.711769    1.850597
H      0.632997    2.084766   -1.620718
H      0.741606   -1.800808    0.240607
H     -1.761035    2.218322   -1.138198
H     -1.610714   -1.620563    0.690902
H      2.605199   -1.015046   -1.182630
H      2.594663    0.587059   -1.958908
H      3.027607    1.699873    0.194197
H     -3.716033    1.367878   -0.278510
H     -5.996696   -1.129040   -1.216296
H     -1.063681   -1.078152    1.123094
H     -1.345715   -1.687644   -0.492804
H     -1.205246    0.482510   -1.538676
H     -0.891293    1.319936    0.011309
H      0.810292   -2.282502    0.200907
H      0.814300   -1.353871   -1.298020
H     -3.135973    1.480661   -0.480272
H     -3.349013   -0.354445   -0.569381
H      1.930408   -0.606659    1.478082
H     -3.915207    0.768258    1.585965
H     -2.263565    0.996942    1.821914
H      2.800990   -1.179664   -1.223440
H      3.795708   -0.550185   -0.023937
H      3.086961    2.314059   -1.108169
