31

C      3.679317   -0.042213    0.080519
C     -2.743447   -1.124954   -0.340071
C     -2.798690    1.223178    0.510001
C      0.068898   -1.147165   -0.166638
C      0.081620    1.323900    0.293620
C      1.711641   -0.712215   -1.944113
C      2.203443   -0.077184    0.339220
C      1.503869   -1.093756   -0.555540
C     -0.657386    0.153099   -0.253950
C      1.544772    1.229765    0.090031
C     -2.007036   -0.034692    0.408387
N      1.874329   -0.395429   -3.029062
O      2.241019    2.160281   -0.269721
O     -1.792204   -0.535048    1.709588
H      3.849694   -0.327677   -0.978497
H      4.156291   -0.838986    0.696135
H      4.131910    0.952325    0.262068
H     -2.571397   -1.010155   -1.430381
H     -2.292258   -2.092208   -0.036281
H     -3.821002   -1.102664   -0.067703
H     -2.387026    2.081827   -0.034088
H     -3.814017    1.008889    0.063532
H     -3.032873    1.474099    1.584506
H     -0.021294   -1.552708    0.848707
H     -0.445747   -1.859215   -0.871262
H     -0.150473    1.541045    1.355350
H     -0.252329    2.239765   -0.275267
H      1.963494   -0.353497    1.394631
H      1.964121   -2.072650   -0.319513
H     -0.848351    0.348222   -1.347843
H     -1.338888    0.138179    2.283635
