54

C     -3.140991   -2.439216    1.401728
C     -2.411109   -1.649402   -1.978479
C      4.067372   -3.499000    0.568899
C      4.453088    1.265630    0.690793
C      0.554567    2.249771    2.139686
C     -2.945578   -0.251034    0.391162
C     -0.370314   -2.534930   -0.968102
C      1.689120   -2.182491   -0.059761
C     -2.697440    1.942868   -0.377407
C     -1.278358    5.128670   -1.466123
C     -2.201022   -1.585043    0.532326
C     -1.836423   -2.258437   -0.718834
C     -2.022924    0.807968   -0.075856
C      0.526630   -1.559252   -0.377298
C      2.722628   -1.485226    0.581127
C     -2.030043    3.043764   -0.884117
C     -0.635630    0.806678   -0.298473
C      0.400609   -0.190842   -0.040825
C      0.072541    1.868468   -0.805806
C     -0.644473    3.000283   -1.096523
C      2.534370   -0.151192    0.887608
C      1.381087    0.524496    0.592629
O      1.419521    1.685486   -0.988433
O      3.927860   -2.133062    0.905311
O      3.523463    0.598093    1.525673
O      1.131626    1.835562    0.900340
O     -2.424556    4.313300   -1.276817
O     -0.209452    4.211419   -1.605549
H     -3.836446   -2.928562    0.680620
H     -2.549309   -3.209422    1.925599
H     -3.747755   -1.822440    2.071266
H     -2.283486   -2.448248   -2.771781
H     -1.877559   -0.779284   -2.354116
H     -3.513530   -1.527931   -1.914233
H      3.310695   -4.092538    1.133805
H      3.888640   -3.668481   -0.523245
H      5.080964   -3.853705    0.823981
H      4.143290    1.257950   -0.379611
H      5.462375    0.800986    0.721842
H      4.505766    2.357905    0.962551
H     -0.521661    2.364613    1.970260
H      1.045676    3.164427    2.531717
H      0.754516    1.384189    2.837453
H     -3.776957   -0.303924   -0.313961
H     -3.368582    0.062667    1.362051
H     -0.081025   -3.541918   -0.597911
H     -0.174043   -2.562902   -2.070896
H      1.864359   -3.223152   -0.282994
H     -3.765219    1.953875   -0.208405
H     -1.377545    5.819143   -2.308146
H     -1.108200    5.709504   -0.537879
H     -1.349143   -1.361845    1.218088
H     -2.308949   -3.291434   -0.687898
H      2.026959    2.377194   -1.387037
