71

C      0.073216   -1.935360   -2.076866
C     -1.702880   -2.140335    1.290115
C      5.406934   -3.522338   -1.304808
C      5.893937    0.877897    0.368361
C      2.057151    2.557632   -0.846233
C      3.050634    0.021686    2.875211
C     -7.622195    2.040043   -0.692563
C     -6.885953    1.519224    0.350865
C     -7.058936    2.111432   -1.969148
C     -5.608843    1.085848    0.085015
C     -5.780936    1.670907   -2.204941
C      0.697728   -2.948334    0.096932
C      2.927519   -2.442185   -0.425832
C     -1.462723    1.424908    0.967368
C     -0.187840    4.046744    3.191960
C     -0.474567   -2.574114   -0.808170
C     -5.038522    1.151365   -1.177719
C      1.755618   -1.910592   -0.004287
C     -0.738371    0.453779    0.377074
C      4.012411   -1.607691   -0.653031
C     -0.837682    2.276072    1.880681
C      1.692091   -0.526300    0.187671
C      0.627990    0.340269    0.707976
C      3.908005   -0.219719   -0.454489
C      0.515183    2.130360    2.188162
C      2.728162    0.339519   -0.029770
C      1.274935    1.145690    1.601397
C     -1.632321   -0.329098   -0.452534
C     -3.673996    0.674248   -1.399902
C     -1.579107   -1.822369   -0.186181
O     -3.127981    0.715458   -2.515663
O     -2.785945   -2.294976   -0.744381
O      5.211163   -2.156390   -1.081098
O      4.986862    0.598964   -0.682910
O      2.502995    1.675047    0.170217
O      2.603957    0.886203    1.843795
O     -1.305698    3.351999    2.635461
O      0.885347    3.104273    3.125075
O     -2.956587    0.157892   -0.342229
H     -0.668778   -1.985465   -2.899503
H      0.507323   -0.952455   -1.926596
H      0.917086   -2.613589   -2.400751
H     -0.951808   -1.613332    1.881572
H     -2.741542   -1.899459    1.636158
H     -1.637972   -3.246522    1.374043
H      6.480683   -3.716417   -1.468681
H      5.042406   -4.118589   -0.451340
H      4.870979   -3.890416   -2.210486
H      5.733489    1.906571    0.757444
H      6.946660    0.804779    0.023510
H      5.763626    0.183438    1.219861
H      2.279161    3.604190   -0.649682
H      0.972138    2.427072   -0.937132
H      2.482121    2.174732   -1.815269
H      3.705769    0.593245    3.590963
H      3.728680   -0.723318    2.419473
H      2.244678   -0.504649    3.388400
H     -8.616033    2.375766   -0.479204
H     -7.310682    1.454002    1.363800
H     -7.662575    2.521949   -2.751810
H     -4.991122    0.668274    0.874844
H     -5.369287    1.736107   -3.195177
H      1.151522   -3.917689   -0.194541
H      0.407361   -3.021252    1.146985
H      2.977570   -3.505302   -0.571873
H     -2.519929    1.602682    0.785245
H      0.030948    4.972185    2.646516
H     -0.380068    4.268065    4.269977
H     -0.858300   -3.583588   -1.154597
H     -1.342283   -0.201232   -1.516639
H     -3.542573   -1.727441   -0.497125
