31

C     -2.152616   -0.076591   -0.885765
C     -1.188169    1.549708    0.653509
C     -0.650343   -2.084978    0.231037
C      0.128279   -1.529301   -0.966824
C      0.798411    0.828309   -1.558733
C     -0.938962   -0.908063    1.132410
C      1.221952   -0.114346    0.651117
C     -1.024596    0.204242    0.074086
C      0.333894   -0.074042   -0.528618
C      0.351524   -0.537650    1.814346
Cl     1.095268   -1.956159    2.586914
Cl     0.162563    0.716043    3.023675
N      1.884330    1.124464    0.843849
O      3.461834    0.755377   -1.237887
O      2.367466    2.985287   -1.017879
S      2.278708    1.532353   -0.812289
H     -2.728411   -0.993400   -0.619168
H     -2.920874    0.751171   -0.863893
H     -1.794581   -0.094566   -1.940187
H     -1.721869    2.192022   -0.107855
H     -0.285952    2.091821    0.924180
H     -1.923859    1.479485    1.501338
H     -0.023536   -2.853969    0.754244
H     -1.547701   -2.587452   -0.143325
H     -0.432329   -1.612632   -1.893195
H      1.130141   -1.983274   -0.982241
H      1.044624    0.351415   -2.509154
H      0.122169    1.716682   -1.725697
H     -1.803213   -0.988509    1.750815
H      2.016837   -0.892684    0.453606
H      2.739009    1.009237    1.397582
