32

C      1.789435   -1.480434    0.999779
C      5.606059    0.054020    0.801867
C     -2.413276    0.413941    1.914102
C     -1.285784    0.255076    1.139210
C     -3.631578    0.519991    1.276829
C      1.866970   -0.135816    0.267977
C     -1.337754    0.199814   -0.231059
C     -3.697806    0.466001   -0.100484
C     -2.577216    0.308240   -0.868395
C     -0.155694    0.030323   -1.088403
C      3.331025   -0.003627   -0.102716
N     -2.681322    0.256292   -2.287642
N      1.024061   -0.088003   -0.785242
N     -4.965162    0.578228   -0.724956
O     -0.438934    0.000155   -2.496567
O      3.740624    0.138693   -1.263713
O     -6.062982    0.094840   -0.068282
O     -5.098135    1.110181   -1.863211
O      4.223165   -0.050224    0.946492
H      2.215196   -1.371810    2.019160
H      2.362773   -2.188926    0.367203
H      0.744970   -1.851633    1.001844
H      6.046916    0.083546    1.841540
H      6.071740   -0.770741    0.232315
H      5.906661    1.000093    0.332529
H     -2.327571    0.452204    2.983323
H     -0.362209    0.175831    1.646940
H     -4.539971    0.646156    1.859241
H      1.714260    0.727350    0.986061
H     -2.560494    1.143827   -2.822849
H     -2.874068   -0.648724   -2.780995
H      0.366099   -0.064864   -3.131895
