32

C      2.933603    2.129839    0.391737
C      4.753884   -1.327388   -1.306076
C     -3.258533    1.951657   -0.117565
C     -1.902553    1.658669    0.062869
C     -4.205101    0.947740   -0.114756
C      2.218052    0.795303    0.609684
C     -1.471314    0.362405    0.248402
C     -3.776123   -0.349768    0.070657
C     -2.426800   -0.631182    0.249114
C     -0.057209    0.059136    0.436764
C      2.784645   -0.153225   -0.413196
N     -1.997003   -1.958059    0.437662
N      0.814079    0.984949    0.434510
N     -4.750056   -1.382523    0.073332
O      0.354613   -1.251378    0.621538
O      2.072073   -0.690791   -1.297320
O     -4.478015   -2.522032    0.787355
O     -5.834205   -1.322410   -0.529481
O      4.132126   -0.460597   -0.401892
H      3.330093    2.213230   -0.637729
H      3.791735    2.238733    1.087658
H      2.219338    2.938619    0.639065
H      4.054603   -1.544117   -2.146785
H      4.882051   -2.316968   -0.780432
H      5.745881   -0.983587   -1.650625
H     -3.580937    2.983108   -0.262894
H     -1.154348    2.449110    0.060920
H     -5.258562    1.180224   -0.255503
H      2.513839    0.444566    1.606480
H     -2.015461   -2.486497    1.324152
H     -1.617761   -2.466674   -0.407841
H      1.183368   -1.490091    1.180196
