31

C     -2.794581   -1.478776    0.017947
C     -3.150086    1.206571   -0.984196
C     -2.581696   -0.264591    0.872065
C      3.411932   -0.287245   -1.891866
C      4.291654   -0.513549   -0.861276
C      2.124442    0.000362   -1.567796
C      3.880094   -0.450434    0.451813
C     -0.820290    0.662536   -0.670819
C     -2.082402    0.914618    0.064965
C      1.666349    0.074170   -0.253379
C      0.355887    0.365570    0.229520
C      2.580179   -0.158843    0.726395
N      0.193630    0.374730    1.494737
O      2.219827    1.122629    3.066518
O      1.680250   -1.300664    2.949175
S      1.697036    0.005142    2.223805
H     -2.221607   -2.332985    0.443215
H     -3.858099   -1.772228   -0.051918
H     -2.435431   -1.364430   -1.023633
H     -2.787222    1.937624   -1.725569
H     -4.006054    1.667231   -0.437505
H     -3.511028    0.306017   -1.482989
H     -3.597937    0.039781    1.252879
H     -1.962088   -0.490818    1.753479
H      3.730289   -0.335206   -2.944986
H      5.325799   -0.745517   -1.079258
H      1.452191    0.174908   -2.424560
H      4.614220   -0.638201    1.265663
H     -0.886135   -0.111292   -1.451966
H     -0.542351    1.605163   -1.191578
H     -1.986772    1.787728    0.704903
