54

C      4.937972    0.636977   -0.845630
C      3.589179    2.261704    0.486189
C     -2.850791   -2.252893    1.479939
C      0.566989   -1.569443   -1.825188
C     -1.359925    1.025387    1.853978
C     -4.272509   -0.704139    0.293811
C     -4.059299    0.580229   -0.435317
C      2.979597   -1.541619   -0.301360
C      0.747334    1.416311    0.067976
C      1.730665   -2.181123    0.203986
C     -0.658488    1.465106   -0.502643
C     -0.545228   -1.420769    0.425491
C      3.837869    0.825962    0.219372
C     -2.941581   -1.257166    0.640150
C      2.698011   -0.061421   -0.046004
C      1.388944    0.092583   -0.123602
C     -3.009455    1.466518    0.133227
C      0.701568   -1.199353   -0.396450
C     -1.671848    0.830456    0.380338
C     -1.735633   -0.651317    0.029561
O     -2.892350    2.567723   -0.751318
O     -1.895592   -0.684947   -1.361716
H      5.649940    1.469092   -0.698810
H      5.499614   -0.303463   -0.662124
H      4.519355    0.573732   -1.850898
H      2.839664    2.512062    1.228370
H      3.511239    2.838432   -0.484611
H      4.539290    2.753636    0.922990
H     -1.934176   -2.741351    1.811089
H     -3.750534   -2.705608    1.948946
H     -0.296555   -2.299664   -1.889333
H      0.418908   -0.727034   -2.524219
H      1.415915   -2.157147   -2.232846
H     -2.279315    0.714647    2.402650
H     -0.485023    0.488626    2.209184
H     -1.288303    2.129076    2.007124
H     -4.887540   -1.378011   -0.302391
H     -4.802798   -0.491734    1.244017
H     -5.031864    1.153864   -0.335824
H     -3.948710    0.462573   -1.540422
H      3.881963   -1.871206    0.264674
H      3.144664   -1.592242   -1.386554
H      0.650171    1.753501    1.093982
H      1.291422    2.180347   -0.513620
H      1.728224   -2.121791    1.298458
H      1.558528   -3.180667   -0.199919
H     -0.740667    1.117326   -1.527916
H     -0.909533    2.568889   -0.525449
H     -0.277114   -1.391539    1.477777
H     -0.796718   -2.517532    0.227104
H      4.361138    0.442211    1.155616
H     -3.448523    1.930929    1.064156
H     -2.919502    2.171662   -1.675632
H     -2.498590   -1.426381   -1.630359
