54

C      4.239639    0.897687   -1.650186
C      4.696346    1.055309    0.741847
C     -2.936674   -2.081710   -1.192420
C      0.682647   -1.418192    2.027898
C     -1.677969    1.086234   -1.351149
C     -4.290156   -0.653970    0.202320
C     -4.213513    0.851174    0.103047
C      3.019657   -1.433111    0.083191
C      0.750490    1.513986    0.269483
C      1.710354   -2.182728   -0.048803
C     -0.603907    1.594461    0.854455
C     -0.577949   -1.388356   -0.148023
C      3.609639    1.091450   -0.312367
C     -2.973513   -1.164282   -0.247089
C      2.625721   -0.003125    0.018643
C      1.336699    0.142228    0.285697
C     -2.986351    1.456271    0.670934
C      0.730090   -1.182352    0.557988
C     -1.680692    0.865876    0.133550
C     -1.724562   -0.612210    0.389761
O     -2.928850    1.418331    2.056035
O     -1.894118   -0.790116    1.765000
H      5.289688    1.307273   -1.590725
H      4.339696   -0.146094   -1.971321
H      3.751670    1.515304   -2.446997
H      5.248723    2.011916    0.803138
H      4.251735    0.825211    1.731751
H      5.400622    0.226450    0.439854
H     -3.860576   -2.442638   -1.619250
H     -2.036076   -2.526584   -1.602979
H     -0.089724   -2.163093    2.329391
H      1.659417   -1.891916    2.333420
H      0.592182   -0.531131    2.659289
H     -2.341259    0.334464   -1.832562
H     -2.090864    2.095926   -1.612374
H     -0.689797    0.982510   -1.820377
H     -4.553348   -1.010401    1.202176
H     -5.091363   -0.977558   -0.492887
H     -5.075681    1.249258    0.676463
H     -4.359734    1.180402   -0.942648
H      3.609042   -1.684041   -0.839103
H      3.568466   -1.689776    1.010424
H      0.738667    1.958400   -0.736501
H      1.427671    2.145299    0.884188
H      1.779820   -3.098509    0.573530
H      1.459979   -2.459287   -1.071167
H     -0.680329    1.351928    1.930138
H     -0.892126    2.690509    0.813317
H     -0.823883   -2.483412    0.003852
H     -0.446674   -1.183896   -1.208939
H      3.141866    2.086302   -0.270966
H     -2.965686    2.526124    0.378458
H     -2.656470    2.286138    2.447111
H     -2.518682   -1.547927    1.946573
