48

C      6.181277   -1.977990    2.251502
C     -6.305926   -1.242998    2.078416
C      6.204690   -1.350842    1.024276
C      5.102595   -1.725761    3.071582
C     -5.345419   -2.208830    2.288889
C     -5.957633   -0.206362    1.239625
C      5.193799   -0.494152    0.606930
C      4.081010   -0.864227    2.657879
C     -4.094571   -2.175345    1.710947
C     -4.712973   -0.144829    0.645927
C      0.784830    1.798762   -2.796356
C      2.237295    2.138008   -0.881534
C      4.116648   -0.245524    1.432038
C     -3.776158   -1.127414    0.877982
C      0.936045    1.794565   -1.427012
C     -0.510020    1.456570   -3.402302
C     -0.320669    1.489078   -0.741661
C     -1.166076    0.262127   -2.746443
C     -0.923131    0.185478   -1.256198
C      3.017546    0.663070    1.021864
C     -2.461573   -1.036010    0.233490
O     -0.306012    1.215562   -4.759113
O     -0.352052    1.497912    0.605505
O     -2.533313    0.365714   -2.994878
O      2.095107    0.812907    1.849087
O     -1.561949   -1.895922    0.401131
O      2.967524    1.298485   -0.132631
O     -2.164932    0.029731   -0.601570
H      6.979003   -2.641163    2.556239
H     -7.293565   -1.290861    2.548884
H      7.054894   -1.541638    0.362594
H      5.050234   -2.195949    4.033684
H     -5.568155   -3.058231    2.948337
H     -6.687771    0.588764    1.039425
H      5.243106   -0.012598   -0.373210
H      3.236222   -0.677604    3.321034
H     -3.358539   -2.965574    1.905292
H     -4.482304    0.704222   -0.016819
H      1.628704    2.054985   -3.380951
H      2.112547    3.178640   -0.355949
H      2.942811    2.492736   -1.728660
H     -1.194621    2.334710   -3.268980
H     -1.104005    2.262206   -1.067814
H     -0.817504   -0.679219   -3.214808
H     -0.265494   -0.646011   -0.999796
H     -0.431505    2.072031   -5.256337
H     -0.581316    0.662864    1.055311
H     -2.888701    1.045925   -2.364851
