48

C      7.824992    0.561872    0.232284
C     -7.857145   -0.150399    0.856689
C      7.419886   -0.133386   -0.879086
C      6.920763    0.743719    1.266288
C     -7.263046    0.351268    1.996914
C     -7.053217   -0.469385   -0.217873
C      6.132228   -0.645487   -0.969760
C      5.652642    0.238420    1.175020
C     -5.885148    0.518314    2.027513
C     -5.670056   -0.297723   -0.176711
C      1.239846    0.265573   -0.851579
C      1.680827   -1.274112    1.004406
C      5.246064   -0.460970    0.056360
C     -5.072831    0.202980    0.960070
C      0.813459   -0.657115   -0.007586
C      0.240372    0.800681   -1.829417
C     -0.632101   -1.060330   -0.123057
C     -0.983225    1.207724   -1.078791
C     -1.386216    0.262548    0.024656
C      3.886067   -1.001508   -0.039368
C     -3.626978    0.395657    1.037789
O      0.767955    1.829781   -2.577894
O     -0.956341   -1.819069    0.995223
O     -2.076609    1.330140   -1.961942
O      3.539450   -1.627232   -1.053459
O     -3.122242    0.854668    2.093474
O      2.992326   -0.815926    0.994550
O     -2.768484    0.097664    0.001209
H      8.832830    0.967753    0.313489
H     -8.945555   -0.294847    0.799686
H      8.099077   -0.291226   -1.698909
H      7.279549    1.300056    2.130087
H     -7.884474    0.610087    2.859764
H     -7.502741   -0.871042   -1.138608
H      5.876893   -1.182968   -1.871505
H      4.952097    0.395630    2.009095
H     -5.452053    0.914022    2.937431
H     -5.048147   -0.550237   -1.022932
H      2.225967    0.666897   -0.883535
H      1.275188   -1.072050    2.037047
H      1.738537   -2.396729    0.858936
H     -0.035607   -0.011854   -2.561216
H     -0.847365   -1.552003   -1.073108
H     -0.763733    2.207927   -0.624709
H     -1.015854    0.676167    1.001807
H      1.349426    2.441966   -2.043969
H     -1.236784   -2.709592    0.671038
H     -2.900490    1.503677   -1.409561
