42

C     -2.983133   -1.778686    0.275113
C     -3.721292   -0.228485   -1.625766
C      3.847785   -0.368906   -1.018161
C     -0.716560    2.605894    0.396871
C      1.656435   -1.421241   -1.648332
C      0.971546    1.584228    1.920385
C      2.044970    0.806327    1.277735
C      0.249953   -1.359199   -1.028521
C     -1.764924    0.273439   -0.268165
C     -2.758857   -0.540531   -0.512021
C      2.547663   -0.875500   -0.529639
C     -0.397865    1.460141    1.334371
C      1.627665    0.214479   -0.005102
C      0.406952   -0.673729    0.278839
C     -0.735940    0.108296    0.789438
O     -1.332403   -0.668898    1.814181
H     -3.782692   -2.400671   -0.219995
H     -2.055811   -2.361610    0.409827
H     -3.410447   -1.560111    1.293193
H     -4.567010   -0.926468   -1.620172
H     -4.126801    0.814515   -1.500465
H     -3.202929   -0.218022   -2.613696
H      3.804803    0.174310   -1.962382
H      4.235840    0.364180   -0.250747
H      4.579611   -1.201355   -1.018433
H     -0.274700    3.517530    0.903031
H     -1.813575    2.762058    0.350234
H     -0.235058    2.563369   -0.573824
H      1.667381   -0.673613   -2.488690
H      1.936700   -2.423755   -1.961997
H      1.247458    2.678659    1.869805
H      0.977133    1.352636    3.023509
H      2.961110    1.438076    1.088730
H      2.414290   -0.018719    1.942746
H     -0.471662   -0.907605   -1.715197
H     -0.009424   -2.438454   -0.832767
H     -1.667403    1.163183   -0.894139
H      2.655503   -1.625837    0.250513
H     -1.106680    1.631673    2.205093
H      1.461528    0.902626   -0.833976
H      0.771564   -1.417880    1.044977
H     -0.930725   -0.326346    2.653596
