42

C      3.828001   -1.302712   -0.890990
C      3.549498    0.073455    1.218627
C     -4.013338   -1.024276   -0.030077
C      0.573816    1.833512   -1.851990
C     -1.828927   -2.230608    0.188913
C     -1.038439    2.332872   -0.117032
C     -1.899610    1.430546    0.766190
C     -0.414763   -1.712808   -0.139173
C      1.757742   -0.247030   -0.365280
C      2.968297   -0.472228   -0.023610
C     -2.637910   -0.992010    0.590157
C      0.331322    1.810599   -0.354830
C     -1.781228    0.106502    0.087188
C     -0.413745   -0.408142    0.574030
C      0.693734    0.536044    0.303890
O      1.247128    0.846926    1.555909
H      4.886407   -0.979695   -0.912398
H      3.852824   -2.377239   -0.544749
H      3.452276   -1.296134   -1.939432
H      3.519442    1.183232    1.277767
H      4.657706   -0.161234    1.278832
H      3.130754   -0.370484    2.145749
H     -4.673931   -1.601241    0.645733
H     -3.986719   -1.505213   -1.028084
H     -4.370606    0.028300   -0.079572
H      1.643777    1.692519   -2.099685
H      0.366278    2.900960   -2.169595
H     -0.114192    1.218315   -2.423377
H     -1.752296   -2.879961    1.075961
H     -2.288872   -2.692864   -0.687333
H     -1.067010    3.383955    0.295146
H     -1.611962    2.409349   -1.069607
H     -2.935376    1.808260    0.655637
H     -1.548767    1.426949    1.802368
H     -0.425844   -1.536353   -1.250265
H      0.333651   -2.435654    0.181540
H      1.405473   -0.692925   -1.318688
H     -2.713923   -0.930395    1.677595
H      1.025930    2.623226    0.026826
H     -1.776302    0.214808   -1.016477
H     -0.583886   -0.630625    1.655217
H      0.653592    0.619502    2.308967
