53

C     -6.517325    0.034578   -0.660566
C     -5.408478    2.022441    0.482073
C      5.574312   -0.078867    2.358629
C     -0.454471   -2.940297    0.520820
C     -2.062818   -1.496582   -1.222111
C      6.808140    2.066631   -0.406564
C     -3.125807    0.447887    1.062352
C     -4.280744   -0.120506    0.341928
C     -1.891733    0.528005    0.272459
C      1.978282    0.384590   -2.096235
C     -5.370573    0.608436    0.057753
C      4.630611    0.035974    1.215506
C     -0.894566   -1.561790    0.962393
C      2.785678    0.253859   -0.993526
C      0.623758    0.092742   -1.961049
C      2.296525   -0.152950    0.226572
C      0.086293   -0.320988   -0.755004
C      3.210893   -0.267180    1.345702
C      4.198439    0.556646   -1.127493
C      5.078917    0.425831    0.031044
C      0.937553   -0.434341    0.316324
C     -1.259064   -0.706824   -0.269984
O     -0.180356    0.225171   -3.048567
O      2.768371   -0.641387    2.473579
O      4.636912    0.932021   -2.262909
O      6.425295    0.727903   -0.149160
O      0.223383   -0.861943    1.457629
H     -6.313196   -1.045384   -0.849974
H     -7.459164    0.058981   -0.068908
H     -6.736098    0.519819   -1.630094
H     -5.440088    2.053500    1.592964
H     -6.323847    2.520298    0.129047
H     -4.555246    2.615507    0.076487
H      5.089904    0.149694    3.334035
H      6.443766    0.602786    2.158485
H      5.987486   -1.118550    2.334270
H      0.630511   -3.086689    0.734344
H     -1.023125   -3.673226    1.146384
H     -0.669243   -3.147139   -0.539109
H     -2.546192   -2.364356   -0.698787
H     -1.473705   -1.994607   -2.026981
H     -2.841145   -0.921206   -1.721503
H      7.917480    2.108124   -0.520917
H      6.394090    2.416946   -1.395057
H      6.462488    2.749831    0.404616
H     -2.991772   -0.058027    2.056758
H     -3.459040    1.490666    1.378615
H     -4.338768   -1.152059    0.024310
H     -1.996230    1.289890   -0.568020
H     -1.086116    1.029360    0.917648
H      2.359652    0.709111   -3.075479
H     -1.685343   -1.578387    1.706339
H     -1.164488    0.066054   -3.071072
