58

C     -7.810043    1.694597   -1.004623
C     -5.596505   -1.891942   -2.936524
C     -2.773867   -2.810207    0.094959
C      8.836755   -2.362363   -0.711050
C     -2.687816    2.529534    0.422160
C     -4.952224    1.673144   -0.355270
C      5.011705   -0.433052    0.313347
C      1.093921   -0.243314    1.797457
C      3.229468    2.097514   -0.245019
C      2.120319    3.079765    1.785611
C     -3.606794    1.633972   -0.058195
C      3.362122    2.351128    1.227748
C      3.728139   -0.190023    0.751841
C     -1.421855    1.927188    0.532722
C      5.292364   -1.778279    0.520610
C      1.870870   -1.472716    1.778878
C     -5.615861    0.573607   -0.837780
C      1.584342    0.892396    1.336414
C     -2.910791    0.463882   -0.249803
C      3.227309   -1.406324    1.230956
C     -4.921896   -0.599088   -1.030640
C     -3.576051   -0.641256   -0.734377
C     -0.284573    2.655923    1.048057
C      6.546638   -2.445740    0.192854
C      2.951674    1.032202    0.756038
N     -1.611542    0.683637    0.114461
N      4.200066   -2.304902    1.066002
N      0.999017    2.193519    1.326574
O      1.427653   -2.568046    2.207978
O     -0.437306    3.932354    1.300374
O      6.681791   -3.668928    0.427651
O     -6.972241    0.589877   -1.144217
O     -5.581704   -1.747822   -1.527051
O     -2.875249   -1.847039   -0.935612
O      7.613644   -1.771727   -0.377318
H     -7.846588    2.248905   -1.963846
H     -8.870367    1.375686   -0.791337
H     -7.527827    2.386372   -0.186074
H     -5.770420   -0.924587   -3.419057
H     -6.397463   -2.583711   -3.226813
H     -4.591982   -2.331159   -3.206562
H     -3.626876   -2.790569    0.786564
H     -2.759447   -3.810954   -0.385707
H     -1.858473   -2.672664    0.716698
H      8.923617   -2.561068   -1.797251
H      9.665847   -1.750913   -0.329841
H      8.890478   -3.372447   -0.216830
H     -2.950246    3.548757    0.667994
H     -5.499258    2.585541   -0.206941
H      5.722659    0.257020   -0.123012
H      0.067220   -0.248116    2.195867
H      2.433044    2.561022   -0.836588
H      4.186547    1.994442   -0.782351
H      1.978394    4.034398    1.288378
H      2.127258    3.063938    2.870516
H      4.310303    2.560816    1.713111
H     -0.894132   -0.059429    0.033107
H      4.146233   -3.332752    1.327878
