54

C      8.276341    0.891848    0.054454
C     -5.155134    5.123847   -2.360686
C     -5.545225   -2.189345    2.159241
C      2.194526   -4.390143    0.497545
C      2.643106   -0.013566    1.327110
C      2.609849   -0.218756   -1.081122
C      4.027225   -0.051882    1.309905
C      3.985261   -0.253037   -1.053858
C     -4.205241    0.855424   -1.076543
C     -2.109798    1.809579   -1.570360
C     -1.538238   -1.324714    0.470958
C      6.806507    0.975879    0.037355
C     -4.476167    4.020520   -1.646678
C     -4.767550   -1.093376    1.540375
C      1.324780   -3.381281   -0.155489
C      1.952247   -0.098531    0.119404
C      4.705765   -0.171790    0.119744
C     -3.490477    1.864219   -1.683036
C     -2.207364   -0.206751   -0.283293
C     -3.590034   -0.174465   -0.381742
C     -1.471584    0.795836   -0.884621
C     -0.152628   -1.419568   -0.041394
C      0.492935   -0.055749    0.168016
O      6.245189    2.099616   -0.061167
O     -4.222155    4.105039   -0.417203
O     -4.475777   -0.039617    2.163041
O      1.131454   -3.381606   -1.408809
O      6.084508   -0.207431    0.132155
O     -4.126724    2.886751   -2.374306
O     -4.326746   -1.193431    0.230036
O      0.664351   -2.376999    0.523928
O     -0.083004    0.802506   -0.810770
H      8.614599   -0.118861   -0.228250
H      8.640002    1.117959    1.087654
H      8.724488    1.637131   -0.644356
H     -5.043523    6.062257   -1.792871
H     -6.225284    4.872772   -2.412255
H     -4.712607    5.258238   -3.371678
H     -4.868455   -3.079262    2.262125
H     -5.898870   -1.881920    3.158167
H     -6.411972   -2.509499    1.527151
H      2.104031   -5.362214   -0.023758
H      3.256695   -4.067077    0.365622
H      1.966600   -4.454353    1.572142
H      2.155274    0.080905    2.279467
H      2.033821   -0.280685   -1.984111
H      4.558206    0.014160    2.246473
H      4.524508   -0.345957   -1.971576
H     -5.290737    0.881839   -1.154530
H     -1.560685    2.618252   -2.057864
H     -2.165423   -2.210785    0.300544
H     -1.517078   -0.992825    1.526531
H     -0.207018   -1.574004   -1.155138
H      0.123231    0.344903    1.155044
