48

C      4.853424    0.539998   -1.923758
C      5.332053    0.552071    0.482078
C     -4.074711    0.958817   -1.445351
C     -3.994875   -1.349706   -0.695516
C     -1.278137   -1.797652    0.957595
C     -2.569589    1.299601    1.529826
C     -3.718098    0.524299    0.955702
C     -1.323199    0.504095    1.685573
C      2.228072    0.157831   -1.310055
C      1.348749   -0.686463    1.122616
C     -1.502628    0.434997   -1.761978
C      4.601127   -0.178236   -0.616155
C      3.150984   -0.210163   -0.364428
C      0.860645    0.121424   -1.088232
C      0.416462   -0.301968    0.131024
C      2.690117   -0.637483    0.869569
C     -0.092735    0.517381   -2.113001
C     -1.929475    0.028705   -0.589843
C     -3.413912    0.016178   -0.426349
C     -1.017430   -0.379747    0.456074
O      3.614804   -1.022583    1.866879
O      0.323906    0.903484   -3.228141
H      4.480322   -0.038843   -2.792606
H      5.928890    0.732581   -2.105216
H      4.344265    1.531278   -1.940422
H      6.083666    1.220455    0.020358
H      5.773447   -0.154088    1.223554
H      4.570861    1.179370    1.030693
H     -5.129703    1.128942   -1.080355
H     -4.196429    0.418054   -2.407453
H     -3.579788    1.924635   -1.511580
H     -3.215564   -2.067621   -1.087046
H     -4.540792   -1.773897    0.190058
H     -4.768774   -1.327263   -1.499957
H     -0.825139   -2.573310    0.345117
H     -2.371653   -1.946565    1.149261
H     -0.834790   -1.849271    1.973513
H     -2.883713    1.622114    2.550674
H     -2.443754    2.230775    0.950466
H     -4.083109   -0.277917    1.643958
H     -4.577888    1.249009    0.894895
H     -1.359514   -0.090589    2.619617
H     -0.457205    1.186392    1.808486
H      2.530161    0.506415   -2.308606
H      0.985287   -1.013356    2.081428
H     -2.189770    0.742287   -2.564606
H      5.013948   -1.228397   -0.729478
H      3.241181   -1.326073    2.753590
