48

C     -3.985398   -0.239338    2.173988
C      0.308149    1.432508    4.692679
C      1.882659    3.647351   -4.592668
C     -0.535121   -1.776439   -1.875606
C      1.061720   -3.526204    0.253544
C      2.507238   -1.330311   -1.179934
C     -2.523381   -0.141677    1.857402
C      0.717173    0.958402    3.350617
C      1.611494    2.281877   -4.063236
C      2.616751   -0.017470   -1.888106
C     -0.278625    0.431674    2.424525
C     -0.740572   -0.491777    0.276986
C     -1.632868    0.360684    2.775390
C     -2.068201   -0.564583    0.613400
C      1.473936    0.867022   -2.074890
C      0.171210    0.005034    1.173801
C      0.289488    0.488853   -1.633668
C      0.065201   -0.833732   -0.936820
C      1.346290   -1.245027   -0.247283
O      1.921344    0.999698    2.984497
O      1.308120    1.314620   -4.805563
O      3.734561    0.337967   -2.339526
O     -2.020440    0.791898    4.015156
O     -2.993706   -1.066345   -0.287391
O     -0.785468    1.336087   -1.816854
O      1.192210   -2.242006    0.642952
O      1.696869    2.075982   -2.715714
O      1.461525   -0.031377    0.581646
H     -4.489200    0.308000    1.321988
H     -4.338349   -1.286770    2.183745
H     -4.256106    0.247764    3.106197
H     -0.403561    2.277773    4.656839
H      1.202516    1.847921    5.242600
H     -0.129660    0.613825    5.293068
H      1.251557    3.899048   -5.453975
H      2.974827    3.750798   -4.828357
H      1.692764    4.401208   -3.780954
H      0.237976   -2.464344   -2.276334
H     -1.374405   -2.400314   -1.509159
H     -0.880601   -1.205663   -2.787709
H      0.980321   -4.147590    1.199393
H      1.926540   -3.954919   -0.287962
H      0.131138   -3.697280   -0.283248
H      3.419623   -1.493558   -0.590268
H      2.295028   -2.081822   -1.938354
H     -2.911939    0.813125    4.422980
H     -3.961275   -1.113498   -0.018937
H     -1.169354    1.862929   -1.030877
