66

C      5.593438    2.173310    0.899596
C      3.653416    2.912401   -0.355720
C      5.270970    1.392715   -1.393409
C     -5.977178   -1.893089   -0.044157
C      1.811568   -4.793138   -1.124227
C      1.003378   -3.733622   -1.471398
C      2.741454   -4.620748   -0.123783
C     -5.362914    2.933213   -1.067529
C     -6.418626    2.060142   -1.219508
C      1.125105   -2.511251   -0.821210
C      2.834343   -3.397132    0.498762
C     -4.149041    2.527826   -0.528803
C     -6.251589    0.763074   -0.824985
C     -0.318347    0.751310    0.121080
C     -1.334503   -0.493798    1.863882
C     -1.561708    1.582418    0.433684
C     -2.660138   -0.515431    1.088398
C      0.986774   -0.612737    1.639234
C      2.046391   -2.310949    0.184247
C      2.208393   -1.011790    0.903414
C     -3.960370    1.208060   -0.120691
C     -5.028814    0.356388   -0.283099
C      2.792468    0.017890    0.010086
C      4.561892    1.696429   -0.130950
N      3.784546    0.675950    0.435233
N     -0.218030   -0.401614    0.950441
N     -2.757685    0.774449    0.442607
O      2.310364    0.300746   -1.267154
O     -4.926689   -0.956191    0.090689
Cl     0.688096    0.000000    0.000000
Cl     0.689587    0.000000    0.000000
H      6.134466    3.011417    0.407682
H      6.346831    1.384515    1.105554
H      5.073950    2.515782    1.815144
H      3.263379    3.186721    0.645345
H      2.802998    2.556612   -0.954478
H      4.216163    3.736532   -0.838748
H      4.795761    1.933364   -2.265158
H      6.298835    1.805845   -1.358258
H      5.384483    0.310241   -1.606626
H     -6.809438   -1.697123    0.661965
H     -5.549152   -2.881772    0.263214
H     -6.312169   -2.017061   -1.083203
H      1.730465   -5.760009   -1.623509
H      0.284442   -3.882382   -2.252175
H      3.355884   -5.474371    0.118174
H     -5.484763    3.972427   -1.379307
H     -7.340157    2.453534   -1.649229
H      0.482453   -1.725526   -1.122358
H      3.571477   -3.290567    1.279339
H     -3.360498    3.264658   -0.430446
H     -7.066490    0.063443   -0.935972
H     -0.362393    0.545609   -0.949625
H      0.529929    1.430316    0.384241
H     -1.253724   -1.346711    2.546656
H     -1.350281    0.449141    2.453976
H     -1.437034    2.191852    1.347508
H     -1.638265    2.298030   -0.406220
H     -2.636082   -1.292518    0.310975
H     -3.473629   -0.679731    1.828530
H      0.799425   -1.419182    2.419833
H      1.226587    0.312304    2.237424
H      2.993074   -1.207327    1.694796
H      2.984605    0.377108   -2.036200
H     -0.688096    0.000000    0.000000
H     -0.689587    0.000000    0.000000
