48

C     -4.911098   -0.358006    1.850534
C     -5.085146   -1.835621   -0.171691
C      4.153606    0.245837    1.479127
C      3.766699    2.150982    0.035788
C      0.988052    1.447935   -1.623029
C      2.916526   -1.341694   -0.880989
C      3.768079   -0.108738   -0.889579
C      1.518503   -0.966904   -1.322337
C     -2.294504   -0.011239    1.204883
C     -1.277885   -0.226408   -1.323659
C      1.403335    0.670294    1.749649
C     -4.595562   -0.531971    0.374154
C     -3.144455   -0.315059    0.173720
C     -0.929210    0.185627    0.968943
C     -0.399797    0.084795   -0.277858
C     -2.623244   -0.421304   -1.095170
C     -0.019401    0.491617    2.064098
C      1.874823    0.568767    0.531462
C      3.324910    0.756624    0.298572
C      1.015816    0.288210   -0.646774
O     -3.469814   -0.732513   -2.176046
O     -0.453898    0.596062    3.235221
H     -4.629808    0.666701    2.142733
H     -4.371507   -1.141872    2.425318
H     -6.024351   -0.474068    1.961234
H     -5.611163   -1.690375   -1.156192
H     -5.764220   -2.300623    0.583730
H     -4.241825   -2.533366   -0.402431
H      5.187867    0.104866    1.058592
H      3.822186   -0.734095    1.825963
H      4.251878    1.006657    2.263529
H      2.987396    2.914762    0.270537
H      4.162786    2.283659   -1.015249
H      4.636140    2.442799    0.670627
H      0.804360    1.029585   -2.641102
H      0.134586    2.139305   -1.381683
H      1.872287    2.055709   -1.665401
H      2.909394   -1.747129    0.157137
H      3.276359   -2.129593   -1.567626
H      4.830897   -0.398985   -0.785362
H      3.616878    0.432006   -1.836831
H      0.869667   -1.841160   -1.124199
H      1.540270   -0.845963   -2.428300
H     -2.647527    0.084217    2.216980
H     -0.931831   -0.323649   -2.339536
H      2.021180    0.891983    2.611719
H     -5.144136    0.279895   -0.153576
H     -3.084098   -0.808560   -3.098543
