39

C     -3.256843   -2.199127   -0.044447
C      0.084262    3.204738    1.043063
C      2.946602   -0.498137   -1.219855
C      2.645948   -1.199393    1.183617
C     -2.341743    0.988814    0.083299
C     -2.705426   -0.030467   -0.958907
C     -1.265378    1.888938   -0.503045
C     -0.977186   -1.895323   -0.777906
C     -0.024740   -1.457816    0.298890
C      2.146626    1.152642    0.552046
C     -2.355687   -1.407665   -0.570560
C     -0.177965    2.032311    0.475429
C      0.670959    0.878294    0.870341
C      0.710587   -0.212020   -0.150872
C      2.227538   -0.282753    0.068353
H     -4.260114   -1.823655    0.099225
H     -3.067929   -3.221744    0.263373
H      0.869317    3.352864    1.762482
H     -0.513590    4.067285    0.779518
H      2.277482   -0.296052   -2.092814
H      3.876261    0.110144   -1.308517
H      3.219348   -1.571854   -1.294088
H      2.761248   -2.242316    0.864818
H      1.966685   -1.069984    2.040584
H      3.675084   -0.859543    1.501092
H     -2.008300    0.528976    1.035926
H     -3.202339    1.649907    0.359529
H     -2.228624    0.208350   -1.953758
H     -3.806636    0.093106   -1.155379
H     -0.913947    1.504049   -1.500196
H     -1.682801    2.904662   -0.735454
H     -0.581118   -1.522057   -1.767086
H     -0.914960   -3.001114   -0.849509
H     -0.508914   -1.328004    1.289094
H      0.761973   -2.241379    0.457646
H      2.227277    1.881508   -0.288592
H      2.748113    1.385715    1.446010
H      0.496149    0.477334    1.885287
H      0.482782    0.050769   -1.188637
