47

C     -2.121816   -2.143789    2.389996
C      3.516753    2.778277    1.310756
C     -3.676529    2.780949   -1.127308
C      0.967660    0.094849   -2.207346
C      0.318573   -3.632819   -1.021828
C      2.562481   -1.927747   -0.374347
C     -1.922875   -1.065252    1.373054
C      3.962098    1.445089    0.847804
C     -3.869681    1.722136   -0.132400
C      3.470165   -0.775714   -0.265513
C      3.021852    0.545319    0.186893
C     -2.819924    0.782994    0.196138
C     -0.542638    0.048514   -0.208198
C     -3.021221   -0.199326    1.129153
C     -1.586610    0.907705   -0.470143
C     -0.725426   -0.943448    0.725236
C      1.754686    0.839622   -0.039286
C      0.845240   -0.103262   -0.711035
C      1.119399   -1.559170   -0.398210
O      5.150007    1.097442    1.028081
O     -4.980301    1.639790    0.441969
O      4.675941   -0.918519   -0.568838
O     -4.164016   -0.403506    1.822357
O     -1.430960    1.924712   -1.410058
O      1.257508    2.072612    0.365247
O      0.394474   -2.282834   -1.349733
O      0.454078   -1.704876    0.843740
H     -3.201888   -2.297648    2.565542
H     -1.675116   -1.826682    3.364663
H     -1.670312   -3.106433    2.054860
H      3.135628    3.427862    0.491858
H      2.691320    2.723317    2.068960
H      4.381286    3.326266    1.760288
H     -2.899811    3.526532   -0.871708
H     -4.649916    3.367570   -1.187766
H     -3.486126    2.409904   -2.158179
H      1.685662   -0.710462   -2.556620
H      0.052313   -0.075539   -2.769498
H      1.505968    1.036324   -2.423648
H     -0.269397   -4.121325   -1.826598
H      1.348450   -4.040645   -1.085545
H     -0.135581   -3.809527   -0.030579
H      2.749853   -2.592924    0.501541
H      2.854411   -2.506917   -1.279667
H     -5.003386    0.050323    1.814122
H     -0.567913    2.037777   -1.885640
H      0.545634    2.162475    1.077431
