51

C      0.945669    3.616850    0.640636
C     -2.071367    0.630934   -3.502311
C     -2.885110   -1.800471    1.844635
C      2.345244   -0.351392   -3.311193
C      3.474093   -1.951632    2.524204
C     -0.782497    1.931653    2.061521
C      0.457129    2.305954    0.006865
C     -1.992330   -0.185141   -2.229601
C     -3.360356   -0.526752    1.194349
C      1.747111   -1.062347   -2.109630
C      2.368094   -2.073240    1.497082
C      0.252216    1.350063    1.123585
C     -0.102269   -0.057841    0.708176
C     -1.410624   -0.144728   -0.000763
C      1.047591   -0.785680    0.092799
O     -1.501510    0.592065   -1.168854
O     -2.371533    0.370434    0.893388
O      1.588558   -0.240715   -1.034034
O      2.069810   -0.806696    1.058632
H      1.797292    3.424416    1.327991
H      0.106284    4.074426    1.211835
H      1.252888    4.267406   -0.198112
H     -1.075011    0.739027   -3.974969
H     -2.776777    0.110663   -4.180077
H     -2.491210    1.629165   -3.253239
H     -2.418355   -2.492351    1.145932
H     -2.240522   -1.523276    2.714790
H     -3.807126   -2.273073    2.295659
H      2.826431   -1.106998   -3.990099
H      1.583525    0.192967   -3.894004
H      3.156212    0.349979   -3.021365
H      4.226122   -1.178741    2.225973
H      3.038461   -1.572073    3.480586
H      4.037717   -2.887977    2.666480
H     -0.259670    2.680660    2.705439
H     -1.580796    2.474350    1.541141
H     -1.132305    1.135967    2.731876
H      1.203755    2.039123   -0.736975
H     -0.469267    2.584589   -0.533106
H     -3.070730   -0.469552   -2.017138
H     -1.368655   -1.082579   -2.335537
H     -4.020665   -0.022207    1.950707
H     -4.033818   -0.750830    0.337903
H      0.909941   -1.657899   -2.440336
H      2.549632   -1.808901   -1.811491
H      2.760882   -2.738682    0.694450
H      1.512176   -2.598986    1.948370
H      1.197673    1.282372    1.701478
H     -0.277287   -0.590813    1.701845
H     -1.711508   -1.177597   -0.238348
H      0.756791   -1.863891   -0.047144
