47

C      2.964707   -2.545174    0.331002
C     -3.898932    2.927800    0.321230
C      4.815773    2.236989   -0.263901
C     -1.307210   -0.669894   -2.237704
C     -2.526857   -3.498835   -0.011296
C     -1.365928   -1.278129    1.484348
C      2.318619   -1.250923   -0.027539
C     -3.195733    2.040217    1.299974
C      3.368725    2.288840   -0.523090
C     -1.637419    0.148914    1.839260
C     -2.278636    1.011074    0.860739
C      2.561903    1.079466   -0.431044
C      0.388408    0.011906   -0.601514
C      3.123284   -0.128156   -0.103633
C      1.190467    1.123629   -0.675736
C      0.972689   -1.214511   -0.266134
C     -1.980226    0.763535   -0.410491
C     -1.037577   -0.293660   -0.798419
C     -1.262098   -1.554252    0.039126
O     -3.419806    2.208141    2.523230
O      2.823974    3.390355   -0.827368
O     -1.313025    0.595071    2.974286
O      4.485049   -0.207844    0.145962
O      0.697308    2.371772   -0.999147
O     -2.588077    1.531212   -1.382023
O     -2.337906   -2.222735   -0.461783
O     -0.009439   -2.214716   -0.242462
H      3.599971   -2.443559    1.245631
H      3.638877   -2.911678   -0.476935
H      2.187231   -3.317650    0.512466
H     -3.191359    3.527241   -0.253520
H     -4.574744    3.592055    0.861712
H     -4.528398    2.258282   -0.301852
H      5.069396    1.944739    0.789897
H      5.340763    1.614568   -1.010022
H      5.251788    3.269727   -0.385802
H     -2.354913   -0.388644   -2.544391
H     -0.597873   -0.219087   -2.947021
H     -1.272663   -1.784298   -2.377612
H     -1.671894   -4.176384   -0.225603
H     -3.413439   -3.908754   -0.588115
H     -2.846231   -3.522116    1.033583
H     -2.214304   -1.844773    1.915868
H     -0.465567   -1.626539    2.071276
H      4.891913   -1.104168    0.387285
H     -0.211141    2.650200   -1.209120
H     -2.189448    1.740748   -2.277304
