39

C      1.156500    3.575761   -0.414169
C     -2.306246   -2.464042   -0.309349
C      1.956773   -0.735052    1.435183
C      2.332096   -2.368878   -0.320186
C     -3.232353   -0.248580    0.166040
C     -2.469863    0.799759    0.922080
C      1.831718    1.347339   -0.746766
C      2.244221   -0.042278   -0.947978
C     -0.223120    1.802627    0.721261
C      0.188213   -1.173863   -0.273807
C      0.933537    2.105819   -0.145630
C     -2.203217   -1.018234   -0.645896
C     -1.254682    1.007330    0.006905
C     -0.894875   -0.406905   -0.273410
C      1.631373   -1.037472    0.006317
H      0.160352    4.049680   -0.426679
H      1.785562    3.943765    0.405987
H      1.662839    3.683886   -1.407154
H     -3.372347   -2.713587   -0.035167
H     -1.686003   -2.804028    0.518761
H     -2.119584   -3.047018   -1.243372
H      2.880926   -1.263800    1.749029
H      2.188562    0.355055    1.597690
H      1.156909   -1.063590    2.113972
H      2.064984   -3.077948    0.481314
H      1.993037   -2.743501   -1.309570
H      3.436566   -2.205246   -0.281796
H     -3.953650    0.270246   -0.500528
H     -3.823463   -0.922003    0.821162
H     -3.025590    1.736902    1.079216
H     -2.135049    0.400123    1.916026
H      2.531169    1.999105   -1.303889
H      3.345142   -0.130452   -0.877599
H      1.962149   -0.354000   -1.976674
H      0.035629    1.403080    1.715259
H     -0.715392    2.796336    0.947201
H     -0.065964   -2.182329   -0.561266
H     -2.388330   -0.822459   -1.723755
H     -1.608529    1.548451   -0.878763
