73

C     -7.304700    1.581489    1.342341
C     -6.413732    0.343597   -0.528528
C      2.335100   -0.937345   -1.288286
C     -2.486032   -0.937060   -3.468747
C      8.774597    1.047583   -1.519464
C      7.924674    0.005934   -1.826105
C      8.424879    1.935500   -0.520922
C      6.737508   -0.159529   -1.152772
C      7.232929    1.774607    0.159600
C     -0.028621    0.896155   -0.543774
C      2.898144   -1.887818    1.749435
C      1.364796    0.845849    0.044146
C      1.377982   -1.900030    1.992340
C     -4.147547    0.289412    1.814132
C     -4.058543    2.256446    0.257207
C     -2.903332   -1.796245    1.275373
C     -6.222042    1.140805    0.712628
C      6.382826    0.736644   -0.143761
C     -4.900303    1.454651    1.262054
C     -3.349142   -0.468259    0.741075
C     -0.904762    0.188690    0.473218
C     -1.448295   -1.863783    1.538681
C     -2.677766    1.824000    0.492924
C      3.046547   -0.567287    1.032445
C     -0.571230   -1.256955    0.508723
C      5.137608    0.596647    0.591299
C     -2.440685    0.322619   -1.371297
C      1.821232   -0.565169    0.106214
C      0.874343   -1.576465    0.622713
C     -2.323936    0.405823    0.134626
O     -1.041887   -2.389239    2.542746
O     -1.865183    2.556070    0.948113
O      4.862202    1.419877    1.483362
O     -2.604115    1.350554   -2.076223
O      1.102830   -2.758967   -0.130465
O     -2.374550   -0.878546   -2.052749
O      4.236073   -0.444782    0.320652
H     -7.213424    2.178561    2.269433
H     -8.282290    1.367862    0.965836
H     -6.498309   -0.750984   -0.295921
H     -7.421962    0.604491   -0.966490
H     -5.688472    0.578881   -1.306164
H      2.708454   -0.027383   -1.801768
H      3.101439   -1.716208   -1.239316
H      1.435323   -1.367083   -1.814539
H     -3.548116   -0.831029   -3.778653
H     -2.123191   -1.909040   -3.844095
H     -1.854998   -0.150575   -3.931622
H      9.696240    1.134297   -2.077865
H      8.197923   -0.682845   -2.602094
H      9.091446    2.741460   -0.289778
H      6.061328   -0.968953   -1.380247
H      6.954845    2.480983    0.953917
H     -0.395440    1.902499   -0.715034
H     -0.005407    0.262406   -1.454626
H      3.169192   -2.686508    1.012998
H      3.462249   -1.947393    2.678400
H      2.079919    1.424203   -0.555670
H      1.298426    1.242792    1.099064
H      1.180783   -1.150048    2.754960
H      1.180733   -2.948489    2.308563
H     -4.882609   -0.396841    2.284038
H     -3.463337    0.625363    2.627601
H     -4.402959    2.057399   -0.778657
H     -4.150250    3.345146    0.464380
H     -3.501517   -2.008038    2.186162
H     -3.134934   -2.635313    0.570261
H     -5.041322    2.172735    2.126613
H     -4.117696   -0.701488   -0.037176
H     -0.649407    0.648638    1.466800
H      2.911580    0.231711    1.807362
H     -0.944110   -1.696713   -0.465771
H      0.322005   -3.009968   -0.656081
