39

C     -5.062568    2.219461    0.390032
C      5.620753   -0.460245    0.528445
C     -4.355552    1.539215   -0.480481
C     -3.589137   -2.223611    0.257026
C     -2.403233   -1.706216   -0.284659
C     -3.675094   -2.555429    1.592132
C     -3.039483    2.009187   -0.975563
C     -1.420575   -1.862855    1.846376
C      4.805440    0.528575   -0.287525
C     -1.313228   -1.523579    0.512917
C      3.615231   -0.259396   -0.847920
C      0.246166    0.150202   -0.592562
C     -0.067365   -0.958293    0.028567
C      2.789428    0.671007   -1.653371
C      2.497999   -0.262409    0.129484
C     -0.749043    1.155911   -0.947642
N     -2.583868   -2.365761    2.354696
N      1.617324    0.302870   -0.917476
O      4.364872    1.522032    0.585731
O      3.035776    1.452677   -2.591730
O     -0.405715    2.186476   -1.560696
O     -2.085498    1.023324   -0.628006
S      1.531298   -1.825169    0.258070
H     -6.020123    1.850263    0.732636
H     -4.695309    3.168657    0.782225
H      6.461889    0.066003    1.055469
H      4.994149   -0.957307    1.294215
H      6.033499   -1.275230   -0.103665
H     -4.731770    0.590018   -0.867245
H     -4.436966   -2.357120   -0.396736
H     -2.323845   -1.471628   -1.328863
H     -4.581604   -2.959742    2.044828
H     -2.738788    2.943674   -0.462201
H     -3.013968    2.124133   -2.070812
H     -0.547236   -1.719780    2.495019
H      5.425086    0.934499   -1.106277
H      3.898692   -1.194150   -1.326363
H      2.545969    0.333184    1.031268
H      4.356395    1.166550    1.510656
