39

C     -4.517772    3.336952   -0.401132
C      5.199908    0.648693    0.933059
C     -3.898374    2.221768   -0.753200
C     -2.011767   -4.217481    1.604689
C     -1.203700   -3.114621    1.493280
C     -2.666754   -4.673364    0.493509
C     -2.813596    2.269528   -1.734731
C     -1.702373   -2.937146   -0.792658
C      4.136926    1.522051    0.307987
C     -1.018837   -2.430149    0.283747
C      2.775437    1.040934    0.780322
C     -0.205397   -0.063324   -0.155586
C     -0.111438   -1.291611    0.244477
C      1.723090    1.892287    0.165552
C      2.170838   -0.015077   -0.070022
C     -1.468185    0.458475   -0.726432
N     -2.500804   -4.030027   -0.670717
N      0.937389    0.736238   -0.014484
O      4.127587    1.389016   -1.085590
O      1.579715    3.127720   -0.092300
O     -2.514206   -0.212376   -0.845190
O     -1.576291    1.782972   -1.186718
S      1.598677   -1.497366    0.844368
H     -5.327969    3.415153    0.310897
H     -4.224865    4.305851   -0.842731
H      5.834257    1.250463    1.618255
H      4.733722   -0.173200    1.506990
H      5.814720    0.240634    0.085506
H     -4.195756    1.281991   -0.317565
H     -2.141824   -4.725770    2.535845
H     -0.654057   -2.700980    2.344083
H     -3.311212   -5.545741    0.559345
H     -3.007222    1.600926   -2.612274
H     -2.589065    3.274253   -2.137968
H     -1.603700   -2.493081   -1.756812
H      4.287269    2.555211    0.624333
H      2.699503    0.864590    1.859498
H      2.607862   -0.202426   -1.046527
H      5.038264    1.108034   -1.353107
