42

C     -2.472800   -2.964170   -0.892823
C      5.367090    1.059410   -0.145933
C      2.117431   -1.202033    1.160062
C     -2.141514    2.033855    1.932311
C      3.187425   -0.464495    0.734767
C     -2.144589    0.715041    1.819488
C     -1.012681    0.344193   -1.733984
C     -1.695221   -0.984881   -1.840480
C     -0.324907   -1.625616    1.297121
C      1.676041    1.057884   -0.345640
C     -0.797526    2.284397   -0.181231
C      0.810151   -0.804567    0.828357
C     -1.870785    2.785502    0.711439
C      2.963592    0.665231   -0.018157
C     -1.881394    0.144027    0.498971
C      0.577392    0.313928    0.082647
C     -1.605773   -1.344723    0.549698
C     -0.780703    0.760044   -0.285739
N     -1.496577   -1.870494   -0.760823
O     -2.550951    3.833586    0.450385
O      4.040179    1.422354   -0.456046
H     -2.897052   -3.246860    0.087481
H     -3.338180   -2.631613   -1.515124
H     -1.956155   -3.844558   -1.326659
H      5.616474    0.057989   -0.535909
H      5.539725    1.087292    0.950471
H      6.020536    1.835452   -0.633887
H      2.241227   -2.098438    1.754477
H     -2.332711    2.564444    2.875170
H      4.208063   -0.780218    0.997381
H     -2.342434    0.126682    2.714514
H     -0.060961    0.417777   -2.283880
H     -1.698005    1.104345   -2.162794
H     -2.790846   -0.864510   -2.045119
H     -1.294388   -1.476782   -2.772061
H     -0.073374   -2.700140    1.089960
H     -0.457508   -1.511284    2.401165
H      1.578587    1.953386   -0.943376
H      0.156382    2.670028    0.284318
H     -0.834874    2.731498   -1.194147
H     -2.820348    0.247140   -0.116753
H     -2.428039   -1.800101    1.154123
