54

C      8.213732    1.582947   -0.720826
C     -9.123371   -0.591729   -0.415329
C      7.337576    1.418939    0.495878
C     -8.090900   -0.209554    0.640794
C      6.274154    0.380986    0.194454
C     -7.184867    0.847358    0.154127
C      5.472095    0.876423   -0.974561
C     -5.897767    0.692911    0.046753
C      4.379540   -0.069771   -1.373273
C     -5.141739   -0.523995    0.380303
C      3.435295   -0.244886   -0.176784
C     -4.133174   -0.318268    1.415930
C      2.325906   -1.213495   -0.601426
C     -2.863137   -0.520551    1.211226
C      1.388853   -1.429598    0.546904
C     -2.327331   -0.966467   -0.057935
C      0.733878   -0.180695    1.023469
C     -1.352426    0.069849   -0.579566
C     -0.152775    0.496908    0.055601
O     -0.211950   -0.235579   -1.244497
H      9.276120    1.605213   -0.351577
H      7.968736    2.495648   -1.309782
H      8.143048    0.727808   -1.423234
H     -9.776860    0.265210   -0.666429
H     -9.784780   -1.365904    0.025856
H     -8.624225   -0.927372   -1.338349
H      6.825633    2.362243    0.776359
H      7.932902    1.115242    1.393766
H     -7.640336   -1.082899    1.088639
H     -8.674382    0.279486    1.489912
H      6.719067   -0.590670   -0.075615
H      5.682048    0.264275    1.123547
H     -7.651472    1.840311   -0.136628
H      4.994770    1.859882   -0.728908
H      6.168421    1.076451   -1.799612
H     -5.341204    1.575070   -0.333870
H      3.790692    0.368358   -2.181900
H      4.763805   -1.062360   -1.646063
H     -4.819359   -1.068103   -0.530264
H     -5.868495   -1.261995    0.842115
H      3.934539   -0.692146    0.689567
H      3.015158    0.735526    0.063310
H     -4.503451    0.025243    2.407914
H      2.831651   -2.192901   -0.868164
H      1.852366   -0.820980   -1.505685
H     -2.117880   -0.356512    2.023021
H      0.587186   -2.164114    0.271932
H      1.968742   -1.919439    1.398364
H     -1.720831   -1.927928    0.073916
H     -3.004451   -1.203317   -0.873199
H      0.197672   -0.465995    1.976850
H      1.562210    0.503762    1.378839
H     -1.944733    0.892478   -1.117368
H      0.176101    1.580333   -0.158502
