61

C     -7.751152    2.729649    1.590429
C      1.955544   -1.901804    0.347147
C      2.508639   -2.303871   -0.968626
C      0.758981   -1.011391    0.200887
C      2.913719   -1.102780   -1.767505
C     -0.318789   -1.703461   -0.553220
C      3.941147   -0.309105   -1.013165
C     -1.584515   -0.854389   -0.711369
C      5.149843   -1.163076   -0.756299
C     -2.124074   -0.527880    0.638180
C      6.189778   -0.392174   -0.008047
C     -3.400451    0.311541    0.560584
C      6.622913    0.804867   -0.803360
C     -4.479734   -0.417970   -0.193983
C      7.708616    1.525180   -0.021936
C     -6.912866    2.090769    0.804405
C     -5.762701    0.338509   -0.307643
C      7.194143    1.955961    1.271364
C     -6.410712    0.682834    0.994313
C     -7.557728   -0.245914    1.208077
C     -6.291726    2.598781   -0.411608
O      7.221416    1.206945    2.263271
O      6.659024    3.227327    1.414545
O     -7.805098   -1.202830    0.431733
O     -8.407216   -0.078956    2.295681
O     -6.353063    3.795066   -0.832863
O     -5.643069    1.551506   -0.995996
H     -8.039394    3.729692    1.357581
H     -8.145325    2.243680    2.467438
H      1.639414   -2.812622    0.949071
H      2.709099   -1.404157    1.007752
H      3.343128   -3.047924   -0.881791
H      1.735361   -2.871237   -1.556394
H      0.425472   -0.712001    1.232181
H      1.004839   -0.057157   -0.340527
H      2.015892   -0.477077   -2.001626
H      3.398722   -1.452260   -2.715736
H      0.011940   -1.985174   -1.575708
H     -0.626421   -2.628058   -0.016438
H      4.205223    0.591027   -1.617821
H      3.563311    0.094911   -0.051056
H     -1.269606    0.047320   -1.274373
H     -2.272042   -1.462546   -1.330659
H      5.528072   -1.594404   -1.704615
H      4.863531   -2.043712   -0.113863
H     -1.394576    0.137958    1.162346
H     -2.377785   -1.435564    1.197175
H      7.063889   -1.053841    0.232470
H      5.803070   -0.071040    0.989239
H     -3.689784    0.465377    1.619810
H     -3.136853    1.283826    0.147546
H      6.943626    0.542374   -1.825715
H      5.760742    1.526266   -0.843434
H     -4.699046   -1.351638    0.386351
H     -4.175397   -0.743766   -1.187897
H      8.044947    2.362540   -0.668054
H      8.588656    0.844771    0.059707
H     -6.448128   -0.296088   -0.923484
H     -5.693616    0.643240    1.817090
H      6.675315    3.743673    2.285848
H     -9.377142   -0.359722    2.169777
