49

C     -0.544321   -0.910622   -3.326524
C      6.363265    0.781313   -0.173221
C     -3.922263   -1.753622    3.160548
C      1.668187    0.273693    0.957188
C      2.865183   -1.547592    0.068344
C      0.460222   -1.915920    0.613967
C      2.819360    1.064613    0.885240
C      4.016469   -0.763008   -0.005585
C     -0.321260   -1.856461   -0.674493
C     -1.103046    2.050034   -1.389611
C     -1.413227    1.146210   -2.577622
C     -2.717564    2.205025    0.563344
C     -2.400737   -0.514316    0.973568
C      1.679401   -1.040569    0.549432
C     -1.878533    1.513654   -0.243575
C      3.993858    0.534646    0.400179
C     -1.725027    0.137795   -0.025494
C     -0.787816   -0.503225   -0.967616
C     -3.409182    1.544608    1.586612
C     -3.268128    0.195145    1.809117
N     -1.317915   -0.263188   -2.290109
O     -4.255055    2.294684    2.385515
O      5.161396    1.294269    0.314112
O     -3.976687   -0.380840    2.827228
H     -0.695177   -2.008048   -3.331981
H      0.520823   -0.617296   -3.263880
H     -0.945990   -0.540739   -4.299997
H      7.081491    1.637995   -0.270540
H      6.300146    0.307263   -1.157242
H      6.848701    0.063085    0.541615
H     -4.913874   -2.005492    3.610789
H     -3.834071   -2.398296    2.259328
H     -3.168228   -1.973659    3.933313
H      0.769020    0.719403    1.340853
H      2.912314   -2.566094   -0.258185
H     -0.097351   -1.632575    1.517529
H      0.779673   -2.985351    0.812714
H      2.819944    2.099807    1.203832
H      4.929721   -1.212052   -0.394135
H     -1.155106   -2.598164   -0.653642
H      0.337675   -2.184975   -1.508326
H     -0.031951    2.142909   -1.221457
H     -1.528982    3.056449   -1.705828
H     -2.437329    1.395569   -2.922428
H     -0.709312    1.418842   -3.384435
H     -2.838312    3.270416    0.398200
H     -2.322338   -1.576182    1.149022
H      0.147233    0.173951   -0.939595
H     -4.755297    1.822850    3.123932
