37

C      5.605927    0.868163   -0.058019
C     -0.146460   -1.670736   -1.191037
C      4.366508    0.025895   -0.198921
C      3.277951    0.450779    0.766976
C      2.094502   -0.509136    0.486775
C      0.948416   -0.203184    1.371446
C     -0.261560   -1.064499    1.268278
C     -5.215250   -0.072967   -0.331577
C     -4.508534    2.122243   -0.787766
C     -3.881205   -0.456455   -0.228636
C     -3.195531    1.763168   -0.690357
C     -0.963508   -1.126631   -0.039334
C     -5.532643    1.233456   -0.614837
C     -2.849878    0.433466   -0.401690
Br    -7.370289    1.767258   -0.757816
O     -1.516346    0.113119   -0.312199
H      5.994741    0.874016    0.964916
H      6.373680    0.429963   -0.730655
H      5.374437    1.884097   -0.442062
H      0.027505   -0.858918   -1.916306
H      0.710769   -2.271700   -0.904889
H     -0.808930   -2.394992   -1.779051
H      4.566462   -1.041363   -0.000616
H      3.950934    0.173316   -1.222997
H      3.633041    0.248322    1.806713
H      2.974308    1.495373    0.643015
H      1.828469   -0.257452   -0.584553
H      2.497269   -1.509569    0.503448
H      1.260282   -0.069542    2.449764
H      0.588981    0.846691    1.107852
H     -0.096361   -2.085506    1.706087
H     -1.013447   -0.612317    1.993694
H     -6.000048   -0.811160   -0.186897
H     -4.772164    3.153859   -1.011637
H     -3.707569   -1.499582   -0.003738
H     -2.429111    2.501463   -0.835346
H     -1.805348   -1.868940    0.105369
