60

C     -1.220324    4.892164   -2.225597
C     -0.717645    5.222544    0.163769
C      4.134505   -4.383911    1.243978
C      3.095840   -4.067169    0.400919
C      4.324140    0.079327    2.803359
C      4.711789   -3.444468    2.059155
C      4.805370   -1.200311    2.841882
C      2.641588   -2.779195    0.389380
C      3.292897    0.426736    1.976096
C     -0.618857    2.520571   -0.807463
C      1.112919    1.115898    0.212840
C     -0.145823    4.815652   -1.160553
C      4.236982   -2.142411    2.033528
C     -0.015103    1.115172   -0.810918
C      3.189960   -1.793211    1.192809
C      2.692511   -0.495580    1.145010
C     -3.654042   -0.592176   -0.692317
C     -3.198445   -1.677532    0.225359
C     -2.722609   -0.564160   -1.881255
C     -2.170137   -2.608642   -0.391911
C     -1.787553   -3.572335    0.677186
C     -1.299098   -0.715884   -1.421437
N      0.389653    3.482575   -1.155636
O     -3.622515    0.638872   -0.044316
O     -4.267734   -2.465680    0.646236
O     -3.054981   -1.472259   -2.859091
O     -0.586694   -3.677282    1.028173
O     -2.731090   -4.364752    1.301781
O      1.655008   -0.187649    0.299629
O     -1.023339    0.247190   -0.471214
O     -1.052890   -1.954135   -0.841045
H     -0.853521    4.452852   -3.188091
H     -1.435650    5.967119   -2.444256
H     -2.173172    4.447203   -1.912863
H     -1.770438    4.929522    0.301474
H     -0.622743    6.328720    0.267701
H     -0.115968    4.793155    1.010504
H      4.517822   -5.396323    1.276870
H      2.683439   -4.857075   -0.218120
H      4.762618    0.836888    3.435918
H      5.533929   -3.682238    2.731128
H      5.625842   -1.436696    3.512151
H      1.830521   -2.497734   -0.258471
H      2.905940    1.455521    1.944590
H     -1.095342    2.737856    0.149855
H     -1.420976    2.581629   -1.598160
H      0.746807    1.480278    1.189756
H      1.934747    1.786964   -0.106795
H      0.647907    5.548380   -1.419361
H      0.410161    0.895529   -1.798685
H     -4.672496   -0.776951   -1.035254
H     -2.740120   -1.248943    1.135261
H     -2.794049    0.457005   -2.347533
H     -2.620811   -3.222789   -1.207784
H     -0.642216   -0.602255   -2.294852
H      0.792109    3.279946   -2.079343
H     -4.545542    0.884209    0.272647
H     -4.730981   -2.908843   -0.090325
H     -3.947381   -1.850780   -2.669510
H     -2.604716   -4.780111    2.227267
