30

C     -1.686975   -1.242955   -0.819405
C     -0.586538   -1.591453    1.348641
C     -1.435850    1.443181   -0.547865
C     -0.106797    1.070269   -1.214192
C      1.393602   -0.938497   -0.966083
C     -1.365026    0.694796    0.749794
C     -0.834817   -0.650719    0.222520
C      0.458548   -0.040531   -0.325942
C     -0.145167    1.270266    1.499363
C      0.920245    0.573402    0.850749
Cl    -0.277333    1.041855    3.230289
Cl    -0.134824    3.017404    1.135944
N      2.297434    1.189852    0.633578
O      3.161604    0.905239   -1.858430
O      4.010460   -0.725043   -0.196527
O      2.054244    0.039894    1.676023
S      2.851934   -0.013642   -0.731745
H     -1.448801   -0.873552   -1.825408
H     -2.770329   -1.123548   -0.617608
H     -1.509056   -2.354033   -0.834602
H     -1.568861   -1.742925    1.874559
H      0.160939   -1.268704    2.079108
H     -0.291715   -2.566994    0.953752
H     -2.256797    1.014081   -1.166748
H     -1.564038    2.518237   -0.454041
H     -0.225943    0.766481   -2.248503
H      0.601856    1.940317   -1.148269
H      1.147621   -1.027430   -2.064506
H      1.397469   -1.951294   -0.567101
H     -2.247087    0.626045    1.332655
