60

C     -0.344114    4.290233   -0.038874
C     -1.249970    4.067940   -2.282522
C      7.185317   -0.724648   -0.338402
C      6.103204   -0.291096   -1.063610
C      4.208726   -1.759212    3.255170
C      6.967063   -1.205831    0.942133
C      5.466165   -1.719996    2.735375
C      4.833898   -0.330435   -0.539440
C      3.114483   -1.317769    2.514399
C      0.268668    1.521357   -0.137464
C      0.924821   -0.450731    1.070915
C     -0.248041    3.464995   -1.307592
C      5.675255   -1.243457    1.469330
C     -0.109876    0.075290    0.096872
C      4.582624   -0.808021    0.742902
C      3.303130   -0.836340    1.242996
C     -3.681733   -2.648810   -0.113989
C     -4.718110   -1.871129   -0.832534
C     -2.840402   -1.754980    0.762317
C     -4.281380   -0.510570   -1.300735
C     -5.486384    0.318682   -1.465613
C     -2.297060   -0.655238   -0.132110
N     -0.652500    2.084501   -1.090307
O     -4.349044   -3.532543    0.765919
O     -5.068268   -2.597509   -1.994503
O     -1.877073   -2.440519    1.455291
O     -5.586193    1.406377   -0.874477
O     -6.502980   -0.119722   -2.280539
O      2.220976   -0.399830    0.510330
O     -1.381280    0.052816    0.580202
O     -3.408306    0.121491   -0.458413
H     -1.148357    3.889556    0.577998
H      0.629364    4.279748    0.515681
H     -0.507584    5.336033   -0.341916
H     -0.666217    4.523046   -3.129390
H     -1.924960    4.789531   -1.805056
H     -1.876216    3.283933   -2.755403
H      8.204066   -0.714989   -0.703515
H      6.257210    0.082302   -2.051799
H      4.037296   -2.136969    4.260357
H      7.782878   -1.561234    1.560439
H      6.318989   -2.061453    3.306926
H      3.976818    0.006303   -1.097550
H      2.146232   -1.378573    2.991291
H      1.326374    1.632947   -0.440327
H      0.069808    2.044988    0.843528
H      0.855609    0.028847    2.062540
H      0.697109   -1.526075    1.223274
H      0.779462    3.512442   -1.694841
H      0.041927   -0.483577   -0.841821
H     -3.058237   -3.211250   -0.804719
H     -5.646639   -1.804829   -0.233167
H     -3.509132   -1.249404    1.496035
H     -3.787305   -0.602744   -2.312602
H     -1.910309   -1.148063   -1.042852
H     -1.580817    2.146314   -0.582264
H     -4.732366   -3.040785    1.537336
H     -4.924710   -3.568254   -1.856682
H     -1.504153   -1.812899    2.149495
H     -7.117754    0.559816   -2.724024
