44

C     -3.996119   -2.620690    0.826264
C     -4.623891   -0.260446    0.338309
C      5.083568   -0.323697   -2.473050
C      3.746520   -0.384877   -2.774385
C      4.033415    0.618259    2.093468
C      5.505453   -0.060526   -1.193655
C      4.963349    0.411723    1.095640
C      2.825259   -0.180218   -1.783561
C      2.707523    0.559801    1.804585
C     -1.558223   -1.092577   -0.131490
C     -0.070913    0.428592    1.150765
C     -3.972760   -1.478343   -0.194505
C      4.571512    0.142173   -0.212827
C     -1.444363    0.282453    0.432548
C      3.225038    0.087959   -0.480468
C      2.291470    0.295511    0.521448
N     -2.730364   -1.363225   -0.848674
O     -1.274313    3.936841    0.009405
O     -3.029856    2.431467    1.197855
O     -3.385464    2.986819   -1.134330
O      0.947890    0.232594    0.209400
O     -1.473606    1.263192   -0.568793
S     -2.326283    2.629735   -0.120169
H     -4.997950   -3.092591    0.871562
H     -3.789907   -2.202927    1.842651
H     -3.258476   -3.393351    0.609293
H     -4.459552    0.604147   -0.301775
H     -5.749912   -0.428325    0.301623
H     -4.418081   -0.019212    1.400742
H      5.812313   -0.483681   -3.246659
H      3.461081   -0.594363   -3.791176
H      4.364098    0.821389    3.080117
H      6.553546   -0.018044   -0.983080
H      6.030123    0.450188    1.284762
H      1.769121   -0.221613   -1.988205
H      1.963846    0.721253    2.585949
H     -0.686522   -1.183733   -0.864200
H     -1.296713   -1.879730    0.627817
H     -0.053525    1.419900    1.638073
H     -0.011282   -0.352061    1.934220
H     -4.696725   -1.866208   -1.006797
H     -2.161749    0.558484    1.215304
H     -2.626654   -2.155535   -1.537900
H     -1.761923    4.773495    0.178600
