80

C     -4.937211    1.428375    2.655104
C      5.928428    0.280759   -0.675465
C      5.028474    2.560873   -0.477497
C     -0.750949    1.408957   -1.172731
C      0.944528   -1.608162   -2.141212
C      3.798655   -1.654803    0.065874
C     -2.173412    0.073692    2.718528
C     -0.486438   -1.504328    0.860016
C      0.960738   -1.814118    0.709191
C     -5.334207    0.105793    0.671087
C      3.104781    0.476057   -2.042583
C      1.568167    0.684023   -2.087338
C     -4.618426    0.478866   -0.601320
C     -1.404278   -0.592908   -2.247911
C     -2.858546   -0.273728   -2.093925
C      4.531174    0.997657    1.281970
C      3.014155   -0.074305    2.887397
C     -4.418389    0.250597    1.863644
C      3.483413    0.174878    1.520476
C     -1.203606   -0.719651    0.087368
C      3.427103    0.730781   -0.661589
C      1.544166   -0.546041    0.069588
C     -2.634172   -0.548693    0.419355
C     -4.275496   -1.848835   -0.935160
C      4.780935    1.066394   -0.197312
C     -0.567793   -0.074681   -1.061015
C      0.898177   -0.374477   -1.251622
C      2.983494   -0.404354    0.243901
C     -2.966439    0.459539    1.452499
C     -3.512244   -0.572701   -0.800721
O      1.669150    0.319125    3.099563
O     -4.059222   -2.765699   -0.108223
O     -5.213164   -2.090496   -1.918537
O     -2.755911    1.762984    1.271631
H     -5.737246    1.034049    3.344804
H     -4.203052    1.917988    3.290747
H     -5.491574    2.149609    1.994639
H      6.284497   -0.532655   -0.004650
H      5.831157   -0.040032   -1.734801
H      6.823451    0.981344   -0.706999
H      4.737055    2.822336   -1.497464
H      4.577579    3.194786    0.294934
H      6.140815    2.690007   -0.398396
H     -0.412097    1.652198   -2.224203
H     -0.171018    2.030836   -0.508694
H     -1.831657    1.724722   -1.263580
H      0.411430   -2.470032   -1.751091
H      0.596112   -1.255260   -3.137453
H      1.989409   -1.927630   -2.348364
H      4.527487   -1.847463    0.884747
H      3.097353   -2.524475    0.179837
H      4.378810   -1.705956   -0.863528
H     -2.491201   -0.881119    3.131410
H     -2.478379    0.859454    3.462087
H     -1.114337    0.209782    2.510447
H     -0.953231   -2.030412    1.732129
H      1.130815   -2.716982    0.093635
H      1.419399   -1.898431    1.695564
H     -6.269769    0.692109    0.770777
H     -5.636243   -0.960878    0.581408
H      3.498611    1.296353   -2.698820
H      3.398248   -0.462473   -2.494312
H      1.320834    0.662661   -3.140542
H      1.477825    1.708453   -1.619335
H     -4.238144    1.492188   -0.631080
H     -5.327512    0.319368   -1.440117
H     -1.317519   -1.686881   -2.370851
H     -1.083340   -0.128878   -3.197941
H     -3.350563   -0.896468   -2.914461
H     -3.121140    0.762956   -2.476243
H      5.122446    1.538118    2.001634
H      3.167014   -1.124119    3.225991
H      3.569434    0.525367    3.669687
H     -4.491712   -0.643302    2.515615
H      2.801064    1.615307   -0.298247
H      1.081287    0.267475    0.717308
H     -2.982154   -1.477735    0.991357
H      1.232110   -0.333136    3.710275
H     -5.946000   -2.792840   -1.837581
H     -3.461992    2.398319    1.451779
