59

C     -1.904225   -3.169538    0.217919
C      7.587444    1.933193    0.811276
C      6.961990    0.730457    0.557448
C      6.818270    3.067288    1.000317
C      5.584354    0.666361    0.494164
C      5.437067    2.975162    0.931524
C      1.798914   -3.087812    0.492906
C     -0.057518   -2.085075   -1.512400
C     -4.570416    3.102865   -0.819232
C      1.285940    0.438898    0.291437
C      4.804000    1.781044    0.679068
C      1.325245   -1.567550   -1.268633
C      2.273433   -2.608075   -0.846198
C     -3.924172    1.915376   -0.141736
C      1.018332   -1.962594    1.101588
C     -4.955195    0.885098    0.251636
C     -4.275576   -0.131119    1.129077
C     -3.023761   -0.636083    0.494162
C      3.337126    1.700633    0.609343
C     -2.213438    0.470877   -0.174181
C     -1.182493   -1.902366    0.701292
C      0.847094   -0.952233    0.008318
C     -0.578443   -1.154217   -0.409370
O     -5.255742    2.756445   -1.960191
O      3.237561   -2.976614   -1.485206
O     -6.050626    1.451479    0.901319
O     -5.163467   -1.219812    1.249154
O      2.646571    2.726963    0.780612
O      2.688419    0.503701    0.355775
O     -3.008912    1.280369   -0.976138
O     -0.207853   -2.317711    1.578355
O     -2.134643   -1.191578    1.438543
O     -1.254851   -0.119021   -0.940405
H     -1.219474   -4.051262    0.306274
H     -2.237050   -3.063131   -0.833686
H     -2.774375   -3.403391    0.878450
H      8.660613    2.026883    0.868961
H      7.585777   -0.135268    0.414487
H      7.309834    4.003169    1.198019
H      5.143534   -0.299834    0.292527
H      4.884063    3.877197    1.084058
H      1.224078   -4.025210    0.412435
H      2.719023   -3.331167    1.085908
H     -0.194613   -3.161299   -1.279963
H     -0.402220   -1.807144   -2.530834
H     -5.229297    3.635147   -0.104410
H     -3.764400    3.810860   -1.121706
H      0.793892    0.791018    1.214053
H      0.966581    1.084639   -0.549316
H      1.703425   -0.831444   -2.007950
H     -3.446277    2.262304    0.796564
H      1.618606   -1.550466    1.954534
H     -5.252547    0.363871   -0.695748
H     -4.103211    0.344022    2.112231
H     -3.286912   -1.413474   -0.240150
H     -1.827425    1.107244    0.651952
H     -4.838790    3.065612   -2.795338
H     -6.882852    1.084964    0.475362
H     -5.040409   -1.688657    2.109152
