24

C     -0.715875    1.584036    0.326901
C     -3.250678   -0.389154    0.230705
C      3.267973    0.822529    0.353801
C      1.908188    1.000768    0.438300
C      3.794876   -0.422867    0.155539
C      1.635380   -1.312441    0.124731
C     -0.394388    0.096517    0.411678
C     -2.261316   -0.894125   -0.747449
C      1.079466   -0.082412    0.322099
N      2.974193   -1.478412    0.042873
N     -0.997032   -0.661588   -0.640197
O     -2.689579   -1.659809   -1.845819
H     -1.783456    1.769952    0.177586
H     -0.413656    2.039091    1.281170
H     -0.182921    2.050457   -0.533887
H     -3.985332   -1.213227    0.420321
H     -2.793871   -0.154970    1.193918
H     -3.766458    0.486102   -0.244266
H      3.923461    1.656277    0.442474
H      1.523922    1.987186    0.593907
H      4.880714   -0.578400    0.086216
H      1.011261   -2.182182    0.029626
H     -0.766381   -0.268945    1.377189
H     -1.998492   -2.194383   -2.376116
