73

C     -0.205281   -2.625765    1.064131
C     -1.204977   -1.743408    0.719631
C      1.135064   -2.274737    0.987862
C     -2.612984    2.807301    0.166926
C     -0.929838    4.534626    0.156849
C     -3.309598    5.188657    0.443364
C     -3.708278   -3.434861   -1.927381
C      6.525848   -0.258458    3.005692
C     -2.252772    4.159520    0.250970
C     -0.901449   -0.470482    0.281856
C     -1.673971    1.830467   -0.010909
C      0.039787    3.572982   -0.016125
C      1.452088   -1.008922    0.559595
C     -4.123241   -2.203907   -1.150134
C      5.932408   -0.927582    1.782875
C     -1.939331    0.450507   -0.283870
C     -0.333835    2.253222   -0.092418
C      0.430837   -0.094304    0.206782
C     -5.391722   -1.609057   -1.706211
C      6.639462   -0.334270    0.574040
C      0.789800    1.296102    0.006494
C     -4.999472   -0.229180   -2.172341
C      5.659077   -0.217326   -0.588755
C     -4.365534    0.566065   -1.008599
C      4.674100   -1.353675   -0.540729
C     -3.252618   -0.171991   -0.348240
C      3.866225   -1.228645    0.739450
O     -3.473390    5.447875    1.808337
O     -4.753394   -4.373788   -1.974410
O      5.867380   -0.774048    4.121029
O      1.362306    3.974358   -0.108098
O     -6.445285   -1.631351   -0.828980
O      7.631723   -1.230231    0.190082
O      1.983434    1.679021   -0.079817
O     -4.120320   -0.364041   -3.239902
O      4.979471    0.983212   -0.512164
O     -5.433167    0.716376   -0.124841
O      5.310079   -2.594901   -0.510916
O     -3.068199   -1.343833   -1.141791
O      2.720779   -0.501644    0.428068
O      4.582299   -0.615137    1.774385
H     -0.411271   -3.639501    1.412154
H     -2.215960   -2.051402    0.827477
H      1.887341   -2.965635    1.252266
H     -3.675024    2.617654    0.292422
H     -0.631806    5.583700    0.216503
H     -4.264652    4.834356   -0.005286
H     -2.946863    6.120269   -0.034292
H     -2.854204   -3.944145   -1.440950
H     -3.437551   -3.191228   -2.975248
H      6.231816    0.815430    2.930874
H      7.615681   -0.384819    3.081319
H     -4.345868   -2.530634   -0.116595
H      6.110816   -2.004814    1.837432
H     -1.588580    0.390211   -1.445772
H     -5.669415   -2.194175   -2.604399
H      7.128982    0.621590    0.823146
H     -5.902948    0.272461   -2.544028
H      6.240019   -0.277327   -1.511664
H     -4.067964    1.498924   -1.536503
H      3.975329   -1.360620   -1.383638
H     -3.632640   -0.490125    0.667508
H      3.637685   -2.243889    1.106085
H     -3.960360    4.732378    2.264881
H     -4.943486   -4.687296   -1.066534
H      6.489363   -1.225943    4.740546
H      1.665711    4.919403   -0.045384
H     -7.058374   -2.404332   -0.954405
H      7.528512   -2.117468    0.613954
H     -4.680934   -0.579123   -4.033759
H      4.880201    1.282498    0.406117
H     -5.818064    1.625637   -0.279876
H      5.631005   -2.866783   -1.396137
