52

C     -6.107604    0.278173    1.112775
C     -4.915868   -0.322981   -0.891384
C      5.907430    1.967858   -2.094054
C      5.056959   -2.699951    0.805929
C      0.888075    1.728514   -1.354710
C     -0.332848    0.922397   -1.620875
C     -3.648962   -0.019319    1.229420
C      3.349355    1.218118   -1.341579
C      2.866770   -1.056422    0.079536
C      0.041864   -0.018246    1.440640
C     -1.899087   -0.496034   -0.555169
C     -4.752951    0.487141    0.381182
C      2.053649    0.903148   -0.999303
C     -2.280497    0.139716    0.720604
C      1.795758   -0.251235   -0.276564
C      0.434152   -0.618819    0.103794
C     -1.338449   -0.448444    1.804348
C      4.416161    0.436199   -0.998967
C      4.151879   -0.714261   -0.277762
N     -0.504098   -0.268538   -0.882900
O     -1.500438   -1.814504    1.890207
O      5.708641    0.777669   -1.356758
O      5.231995   -1.512381    0.073024
H     -6.084785   -0.749126    1.500764
H     -6.185018    1.002760    1.959979
H     -6.887088    0.432928    0.344509
H     -4.683335    0.294137   -1.777892
H     -4.365378   -1.264209   -0.833159
H     -5.995709   -0.621891   -1.037104
H      6.969739    2.164274   -2.300686
H      5.303752    1.883595   -3.022791
H      5.474250    2.811642   -1.521291
H      4.728810   -3.487295    0.097322
H      6.034700   -3.024701    1.247250
H      4.316869   -2.623516    1.613462
H      0.690143    2.460547   -0.532653
H      1.179996    2.338408   -2.255848
H     -1.207404    1.610808   -1.595254
H     -0.273534    0.620011   -2.711326
H     -3.712586    0.570983    2.204648
H     -3.845689   -1.067462    1.583992
H      3.498438    2.139213   -1.911598
H      2.648762   -1.958304    0.646172
H      0.031750    1.082110    1.306655
H      0.787940   -0.235648    2.223547
H     -2.449262   -0.102149   -1.447981
H     -2.040001   -1.597069   -0.510504
H     -4.689264    1.549009    0.154267
H     -1.998415    1.226717    0.721504
H      0.419003   -1.747022    0.195799
H     -1.630627   -0.009330    2.782414
H     -0.657943   -2.317214    2.003209
