59

C     -3.403868    1.678588   -2.170385
C     -3.889220    2.560050    3.395088
C     -3.728458   -1.945451    0.457380
C     -3.296699   -2.272832   -0.865602
C     -3.057218   -0.753735    0.805210
C     -2.379689   -1.240452   -1.243386
C     -2.545594    0.175127    1.062787
C     -1.686730   -0.443339   -1.540539
C      6.322203   -3.761873   -0.768724
C      5.899749   -3.635369   -2.065828
C      0.899003    0.389264    1.822696
C     -2.474098    2.400583   -1.265805
C     -1.852118    1.426998    1.384373
C      0.401543    0.580547    0.550975
C      5.658985   -3.168697    0.291425
C      4.747025   -2.865225   -2.283056
C      2.026145   -0.384705    2.062414
C     -0.767897    0.606739   -1.907253
C     -3.146285    2.918475   -0.056124
C      4.521365   -2.409090    0.072535
C      4.060220   -2.256783   -1.242255
C      2.667492   -0.982874    0.990775
C      2.208151   -0.827147   -0.320522
C      1.093044   -0.048822   -0.489937
C      3.867208   -1.801027    1.205217
C      2.869970   -1.444926   -1.454883
C     -2.792709    2.540848    1.178425
C     -4.227000    3.859810   -0.162709
C     -1.156043    1.729607   -0.965789
C     -0.765813    1.442369    0.327796
N      0.589927    0.223151   -1.777782
O      6.105526   -3.312650    1.592592
O      4.354270   -2.761150   -3.584983
O      2.543658   -0.586355    3.340223
O      4.311943   -1.962935    2.377015
O      2.481839   -1.326847   -2.632222
O     -4.844386    4.332716    0.829434
O     -4.645230    4.299722   -1.409059
O     -3.304615    3.192456    2.284582
O     -0.330048    2.657543   -0.290522
H     -4.085081    1.057323   -1.515735
H     -4.096207    2.435724   -2.626267
H     -2.982939    1.010715   -2.914775
H     -4.183652    3.385162    4.097227
H     -3.139761    1.932721    3.918920
H     -4.825059    2.029085    3.147321
H     -4.379002   -2.501817    0.969186
H     -3.656251   -3.098774   -1.317190
H      7.216924   -4.351239   -0.564591
H      6.414549   -4.094022   -2.896688
H      0.446328    0.828893    2.686342
H     -2.196332    3.354266   -1.842629
H     -1.428201    1.389634    2.389005
H     -0.987597    0.917677   -2.945834
H      1.177034    0.181317   -2.606656
H      6.942035   -3.874851    1.742181
H      3.670671   -2.353917   -4.104375
H      2.052447   -0.138424    4.112875
H     -5.295459    5.068217   -1.557865
