45

C     -0.057805    0.255957   -0.963168
C     -0.074641   -3.354093    0.200662
C     -2.266561    1.417015    0.846962
C      3.478740   -0.361330    1.494992
C     -3.339553    2.257893    0.659745
C      4.572056    0.457694    1.335144
C     -1.208444   -0.862645    0.894432
C     -3.617745   -0.441207    0.335450
C      3.137655   -0.320460   -0.821253
C     -6.533511    1.362568   -0.693711
C      5.714605    2.131834   -1.693458
C     -0.522672   -1.036805   -0.450552
C      0.596854   -2.061919   -0.348488
C     -2.364552    0.044760    0.692885
C      2.714914   -0.781604    0.399040
C     -4.561087    1.732818    0.306482
C      4.983189    0.913051    0.103536
C     -4.694228    0.367397    0.144316
C      4.247352    0.512032   -0.988307
C      1.610211   -1.692353    0.628879
O      1.512370   -2.210459    1.801975
O     -5.803129    2.338298    0.054990
O      6.012508    1.723988   -0.359302
O     -6.021606    0.150858   -0.206092
O      4.846729    1.089961   -2.100450
H      0.610608    0.761839   -0.249364
H      0.480529    0.147508   -1.929673
H     -0.948075    0.953058   -1.145287
H      0.636347   -4.162156   -0.058891
H     -0.189946   -3.295331    1.286278
H     -1.046984   -3.457150   -0.282952
H     -1.283332    1.816182    1.129088
H      3.203136   -0.688925    2.500009
H     -3.212653    3.337503    0.793343
H      5.171692    0.788154    2.191399
H     -0.537131   -0.380928    1.626773
H     -1.614194   -1.834195    1.261816
H     -3.733657   -1.512852    0.205336
H      2.600529   -0.631610   -1.703085
H     -7.609493    1.498425   -0.465837
H     -6.283496    1.489705   -1.754646
H      5.103574    3.067059   -1.703154
H      6.611284    2.211449   -2.314556
H     -1.292842   -1.450305   -1.141966
H      0.972458   -2.290679   -1.326366
