27

C     -3.124314   -2.122580    1.250352
C      3.399947   -0.575589    0.964091
C      3.207636   -0.325263   -0.376686
C      2.297333   -0.575505    1.785550
C      1.929652   -0.084259   -0.851969
C      1.045764   -0.334385    1.291976
C     -0.879608    0.806073   -1.730870
C     -2.308560   -0.914421    0.947790
C      0.814744   -0.075312   -0.069159
C     -0.560069    0.178374   -0.442377
C     -0.338791    2.165971   -1.927834
O     -2.452216    0.141764    1.630699
O      0.769790    2.477070   -2.401194
O     -1.142793    3.263612   -1.547217
O     -1.391160   -0.902731   -0.060795
H     -4.144419   -1.972365    0.838203
H     -2.658210   -3.004374    0.739902
H     -3.139603   -2.354374    2.340635
H      4.389056   -0.766158    1.355442
H      4.048121   -0.316894   -1.052904
H      2.446385   -0.773882    2.846718
H      1.818388    0.088855   -1.888681
H      0.223056   -0.350626    2.002803
H     -0.595305    0.234039   -2.633662
H     -2.001244    0.894078   -1.805728
H     -0.888858    0.985340    0.331718
H     -0.764723    4.213541   -1.536803
