45

C      5.270595    0.939606   -2.987527
C     -5.810492    1.782800    1.353544
C     -2.956100    1.108495   -3.407589
C      4.864727   -1.346067   -0.110661
C      3.908677   -1.787211    0.774129
C     -3.302499    0.601497    1.391402
C      3.231580    0.014230   -1.118924
C     -1.929152    0.281043   -0.926292
C     -1.483302   -0.444185    2.768239
C     -2.059051    0.008632    1.461691
C      4.535701   -0.426952   -1.082711
C      2.581316   -1.345663    0.746174
C     -1.373351   -0.147442    0.276464
C      2.263965   -0.426389   -0.230430
C     -3.852481    1.026839    0.191718
C     -3.170836    0.873360   -0.998728
C      1.608009   -1.872962    1.739606
C     -0.042238   -0.771907    0.284027
C      0.386732   -1.022227    1.708515
O      2.151117   -1.777614    3.037604
O      5.520113   -0.000097   -1.961098
O     -5.104060    1.620978    0.139890
O     -3.695683    1.289066   -2.214650
O     -0.673842   -1.556365    2.437212
O      0.947990    0.049436   -0.303422
H      6.269600    1.372276   -3.280416
H      4.850209    0.388844   -3.872333
H      4.581934    1.714196   -2.619805
H     -6.743433    2.370114    1.211519
H     -6.012338    0.801219    1.846790
H     -5.210386    2.363040    2.104515
H     -2.760916   -0.002314   -3.470742
H     -3.531236    1.374953   -4.301546
H     -1.946215    1.567003   -3.361020
H      5.886105   -1.720611   -0.047723
H      4.158357   -2.512672    1.545115
H     -3.839101    0.721475    2.334613
H      2.947706    0.732827   -1.868945
H     -1.380084    0.155230   -1.869300
H     -0.881129    0.349651    3.247764
H     -2.243106   -0.809414    3.456533
H      1.360825   -2.935010    1.503865
H     -0.043894   -1.729666   -0.287436
H      0.653719   -0.041044    2.188606
H      2.065950   -0.830997    3.317256
