42

C      4.784773    2.154952   -0.405230
C     -3.071970    4.079961   -0.403238
C     -3.569425   -1.150041    0.220238
C     -3.311241   -2.399593   -0.587204
C      0.279200   -2.635556    0.266722
C      2.646278   -2.179409    0.148381
C     -2.708407    1.194652   -0.077341
C      2.333380    0.523856   -0.148406
C     -2.483493   -0.146200    0.072554
C      1.356899   -1.653557    0.126581
C      1.229967   -0.283933   -0.024654
C     -1.082238   -2.085818    0.261841
C      3.757837   -1.366314    0.023814
C      3.617527   -0.002301   -0.126479
C     -1.655328    2.077891   -0.211037
C     -1.177611   -0.637421    0.091903
C     -0.131710    0.259276   -0.043324
C     -0.349126    1.598478   -0.193193
N     -1.921807   -2.683849   -0.790971
O      5.027696   -1.923378    0.049711
O      0.644663    2.507589   -0.328219
O      4.753550    0.772743   -0.247531
O     -1.834787    3.438807   -0.364523
H      5.677566    2.522483   -0.949496
H      4.818734    2.622167    0.608051
H      3.910958    2.580661   -0.939910
H     -2.908877    5.141633   -0.671108
H     -3.512057    4.047624    0.621104
H     -3.800513    3.579633   -1.071335
H     -3.573842   -1.445144    1.298017
H     -4.565212   -0.733219    0.001002
H     -3.750867   -3.272809   -0.039015
H     -3.834779   -2.306389   -1.552617
H      0.446778   -3.142531    1.264268
H      0.425322   -3.484715   -0.466492
H      2.772113   -3.262634    0.267323
H     -3.714309    1.581381   -0.093193
H      2.277534    1.569096   -0.264655
H     -1.650968   -2.326522    1.210431
H     -1.732790   -3.694848   -0.835309
H      5.103787   -2.920488    0.160358
H      0.476794    3.483785   -0.437209
