52

C     -0.176909   -0.325373    2.244403
C      5.839877   -2.275967    0.227530
C      4.325631    2.096694    0.909075
C      1.760644   -1.855978   -0.757206
C      3.089011   -1.986315   -0.437023
C     -2.304017    2.055514    0.465839
C     -1.345847    1.533924    1.489373
C     -0.196818   -0.494731   -1.219173
C     -4.432779    1.008609   -0.380452
C     -3.180447   -1.384370   -0.753056
C      1.470713    1.889002   -1.102758
C     -6.751645   -1.657667   -1.185261
C      1.239999   -0.583262   -0.947272
C     -3.087292    0.914198   -0.066947
C     -2.463399   -0.287332   -0.255694
C      2.018846    0.564504   -0.826669
C     -1.014836   -0.405043    0.058318
C      3.897699   -0.900679   -0.303698
C     -5.142631   -0.076900   -0.872860
C     -4.524110   -1.289580   -1.065681
C      3.338232    0.353903   -0.502564
N     -0.549214    0.444714    1.061789
O      2.498357    2.851141   -0.931569
O      5.239925   -1.017004    0.019577
O      4.161305    1.488362   -0.363341
O     -6.465600   -0.267144   -1.263206
O     -5.475116   -2.192011   -1.566445
H     -0.770453   -1.255513    2.343124
H      0.892732   -0.624117    2.129627
H     -0.354390    0.249930    3.179998
H      5.511444   -2.669956    1.229724
H      6.947581   -2.223610    0.168030
H      5.505083   -3.018488   -0.518283
H      5.143564    1.567944    1.444170
H      4.605245    3.163523    0.805831
H      3.396095    1.990330    1.493938
H      1.120728   -2.712879   -0.862181
H      3.484891   -2.985549   -0.289734
H     -3.007537    2.741516    1.024102
H     -1.858900    2.673437   -0.326654
H     -0.644933    2.374302    1.768182
H     -1.913830    1.333978    2.439057
H     -0.490957   -1.386474   -1.821401
H     -0.461244    0.377242   -1.867470
H     -4.910448    1.951250   -0.230972
H     -2.664358   -2.334468   -0.895739
H      1.187873    2.012157   -2.190637
H      0.663897    2.247346   -0.447364
H     -6.950999   -1.855922   -0.100181
H     -7.557113   -1.982805   -1.837209
H     -0.938389   -1.496304    0.454858
H      2.294840    3.661922   -1.489251
