19

C     -1.559099    1.586819   -0.440844
C      2.115385   -0.570620    0.434171
C     -1.051088   -0.237880    1.124991
C     -0.453618    0.719998    0.132486
C      1.347000   -0.581541   -0.832354
N      0.221258    0.004651   -0.903333
O     -1.974401   -1.101850    0.548426
O      1.855543   -1.232675   -1.945146
H     -1.131113    2.270295   -1.199138
H     -2.311550    0.947988   -0.936646
H     -2.043664    2.165723    0.354073
H      3.208071   -0.561668    0.242980
H      1.847208    0.249965    1.114870
H      1.899484   -1.526690    0.988435
H     -1.641300    0.392599    1.851453
H     -0.261550   -0.746622    1.678767
H      0.223804    1.396700    0.673308
H     -1.576005   -1.691747   -0.137346
H      1.285636   -1.483445   -2.749152
