40

C      3.995437    0.111110   -0.860569
C      3.759093   -0.554257    1.469346
C     -1.316362   -1.071810    1.625396
C     -0.559158    2.095561   -0.244546
C      1.536575   -0.353173   -1.652459
C      0.122397   -0.696440   -1.984724
C     -2.203262   -0.554898   -1.477368
C     -3.189909    0.373048   -0.857922
C      0.852410    0.323617    0.659535
C      3.191981   -0.305395    0.092620
C     -1.560592    0.313542    1.068539
C      1.763889   -0.517477   -0.190097
C     -0.791512   -0.212002   -1.145560
C     -2.938515    0.532769    0.591212
C     -0.483144    0.607557    0.037265
O     -3.779567   -0.354944    1.305412
H      3.716902    0.324247   -1.881335
H      5.063632    0.261636   -0.603890
H      2.983536   -0.273924    2.190217
H      3.998827   -1.627751    1.528787
H      4.663467    0.065982    1.613942
H     -0.660393   -1.668944    0.961649
H     -0.829856   -1.053308    2.622521
H     -2.276857   -1.632700    1.738462
H     -0.072552    2.367478   -1.197345
H      0.028983    2.594590    0.561886
H     -1.586920    2.495602   -0.154575
H      1.766799    0.698008   -1.983245
H      2.214944   -1.014800   -2.213419
H     -0.104849   -1.293684   -2.847009
H     -2.333816   -0.653624   -2.573915
H     -2.384388   -1.576538   -1.057298
H     -4.206745   -0.098836   -1.004991
H     -3.267899    1.343237   -1.420043
H      0.735130   -0.195558    1.634019
H      1.400707    1.259740    0.894062
H     -1.358758    1.023534    1.916972
H      1.552594   -1.607846    0.035047
H     -3.300300    1.553401    0.900536
H     -4.141950   -1.026749    0.674762
