89

C     -5.666791   -2.261424   -0.536322
C     -3.642654   -3.079920    0.553620
C     -3.546735   -2.109393   -1.694922
C      4.843367   -2.755397    0.047871
C      3.224422   -1.924556    1.748332
C      2.497456   -2.504055   -0.521372
C     -6.600116    0.548618    3.992180
C     -4.778621    2.674346   -3.157190
C      6.699152    2.523967    2.059784
C      6.104406   -0.763089   -4.366821
C     -6.161382   -0.733635    3.702067
C     -6.205490    1.559320    3.159856
C     -5.748084    2.367079   -2.226472
C     -3.541693    2.076993   -3.013724
C      6.066087    2.979409    0.919256
C      6.484316    1.215646    2.461974
C      4.738370   -0.587138   -4.375192
C      6.835224   -0.776696   -3.199777
C     -5.359856   -0.949437    2.610784
C     -5.412287    1.368704    2.074061
C     -5.500381    1.489445   -1.178147
C     -3.299188    1.202714   -1.966811
C      5.225992    2.145035    0.182008
C      5.652098    0.369531    1.741970
C      4.053797   -0.416804   -3.194521
C      6.125692   -0.602789   -2.013481
C     -0.135561    2.863583    1.664318
C     -2.001307    1.267105    1.011052
C      1.631621    0.687394    0.394736
C     -0.548846    1.441817    1.349507
C     -4.978494    0.074644    1.794174
C     -4.268466    0.894223   -1.034463
C      5.036764    0.842796    0.616888
C      4.758003   -0.427217   -2.029737
C      0.383023    1.473230    0.130068
C      0.481865    2.928368    0.314270
C     -4.196414   -1.997393   -0.325796
C      3.629421   -1.885129    0.300115
O      0.900726    3.842952   -0.360203
O     -2.248651   -0.079124    0.742565
O      2.508271    0.681408   -0.672235
Si    -3.904610   -0.282740    0.352924
Si     3.934467   -0.206995   -0.370111
H     -6.230102   -2.369809    0.399844
H     -6.147019   -1.492770   -1.182396
H     -5.741775   -3.243840   -1.067606
H     -4.451699   -3.743042    0.934426
H     -2.970498   -3.717819   -0.038479
H     -3.021779   -2.649488    1.368954
H     -3.592461   -3.151406   -2.048089
H     -2.477030   -1.817266   -1.600025
H     -4.035852   -1.466089   -2.434437
H      4.624623   -3.735627    0.555189
H      4.835593   -3.014416   -1.046534
H      5.793303   -2.327148    0.351322
H      2.229282   -2.446148    1.876841
H      3.093089   -0.947240    2.214404
H      3.965185   -2.496764    2.337239
H      2.216226   -1.871714   -1.387098
H      2.771042   -3.493979   -0.941385
H      1.601969   -2.712709    0.135481
H     -7.233510    0.731636    4.849780
H     -4.940033    3.352919   -3.984158
H      7.354323    3.135566    2.655570
H      6.669109   -0.900499   -5.296626
H     -6.460754   -1.551366    4.346364
H     -6.549714    2.569857    3.384998
H     -6.720101    2.828178   -2.328123
H     -2.782136    2.319941   -3.746821
H      6.254383    4.006730    0.632304
H      6.957273    0.817373    3.345300
H      4.225539   -0.585094   -5.301367
H      7.922464   -0.916896   -3.197034
H     -5.054420   -1.988341    2.449926
H     -5.084143    2.144453    1.400520
H     -6.292843    1.284381   -0.480237
H     -2.316858    0.754242   -1.889781
H      4.741597    2.531972   -0.711085
H      5.457884   -0.653352    2.018578
H      2.978221   -0.274603   -3.143224
H      6.687683   -0.611780   -1.094212
H     -1.032704    3.487822    1.806793
H      0.567720    2.962496    2.512893
H     -2.303734    1.930991    0.198733
H     -2.581985    1.559199    1.913464
H      1.321555   -0.367961    0.571019
H      2.073095    1.042013    1.335024
H     -0.188261    0.760890    2.143965
H     -0.200655    1.151112   -0.753947
