50

C      2.152063    0.622276   -1.694685
C     -2.415909    1.163135   -0.917277
C      2.045658    1.217385    1.773803
C      0.723382    0.585067    2.082177
C     -2.248490    0.631741    1.882690
C     -3.647850    0.226985    1.448625
C      4.372936   -1.128459   -1.108401
C      2.965928   -1.438995   -0.668734
C      4.113465    0.610502    0.682150
C     -1.514397   -1.152454   -1.235975
C      2.796338    0.547144    0.691318
C      4.956805   -0.010118   -0.334031
C     -0.003424    0.371416    0.761082
C     -1.371482   -0.144789    0.971373
C     -3.483548   -0.685717    0.250360
C     -0.072229   -0.898646   -1.298605
C      0.722676   -0.594556   -0.122551
C     -4.591290   -0.623268   -0.697184
C      2.144468   -0.197241   -0.411310
C     -2.160698   -0.169852   -0.311919
O      6.114463    0.388592   -0.534965
O      0.441208   -0.956045   -2.395434
O     -5.250398   -1.653233   -0.968990
O     -4.942073    0.559327   -1.315422
H      1.202499    1.131889   -1.891748
H      2.968763    1.418360   -1.626351
H      2.484692    0.037173   -2.573519
H     -1.513175    1.812120   -1.036595
H     -3.164978    1.769065   -0.416150
H     -2.759662    1.017901   -1.984926
H      1.859438    2.303933    1.526296
H      2.619613    1.253396    2.732417
H      0.116511    1.289081    2.665695
H      0.801461   -0.359713    2.637372
H     -2.072081    0.286512    2.929191
H     -2.098602    1.712686    1.869769
H     -4.232861    1.121657    1.233529
H     -4.115044   -0.396512    2.253201
H      5.016700   -2.027942   -0.877410
H      4.452548   -0.992696   -2.203918
H      3.031487   -2.000545    0.300817
H      2.440007   -2.108343   -1.373323
H      4.587333    1.175347    1.507115
H     -2.018583   -1.038627   -2.231011
H     -1.766801   -2.179146   -0.899212
H     -0.045085    1.363242    0.273619
H     -1.339534   -1.197946    1.340661
H     -3.278180   -1.712923    0.626496
H      0.806584   -1.565493    0.474751
H     -5.830654    0.617325   -1.784864
