50

C     -1.836952    1.678437   -0.532905
C      4.743263   -0.619830    3.123936
C     -5.208833   -1.526755    0.654000
C      5.489418   -0.364553    2.011818
C      3.461604   -0.116494    3.172351
C      3.218261   -0.108758   -3.396250
C      2.027789   -0.786036   -3.337380
C     -5.015086   -1.235454   -0.810897
C     -4.631852   -0.366403    1.468372
C      4.957628    0.371956    0.987854
C      2.909466    0.629451    2.146633
C      3.541739    0.678547   -2.320499
C      1.178650   -0.687622   -2.244092
C     -3.971329   -0.151482   -0.983117
C     -3.127150   -0.395096    1.255913
C      3.155149    1.671195   -0.087277
C     -0.451408   -0.246780    0.256091
C     -1.626259    0.156779   -0.551880
C      3.659646    0.878693    1.041738
C      2.754602    0.816417   -1.223324
C      1.535974    0.111633   -1.186556
N     -2.868770   -0.412987   -0.129250
O      0.774646    0.260924   -0.092775
H     -2.655023    1.871686   -1.257795
H     -2.127624    2.023253    0.466219
H     -0.910315    2.167626   -0.913626
H      5.120239   -1.189370    3.942635
H     -6.278786   -1.682044    0.890362
H     -4.660428   -2.464120    0.885904
H      6.496411   -0.746138    1.947547
H      2.841272   -0.300961    4.042878
H      3.853730   -0.210246   -4.265824
H      1.728876   -1.429429   -4.178472
H     -5.961438   -0.899405   -1.302410
H     -4.659302   -2.119077   -1.378994
H     -5.057108    0.576263    1.075778
H     -4.892772   -0.469698    2.542259
H      5.542915    0.580840    0.099932
H      1.912628    1.007687    2.230903
H      4.485884    1.226366   -2.347051
H      0.273424   -1.261267   -2.250549
H     -3.612382   -0.197646   -2.050552
H     -4.374544    0.861459   -0.822785
H     -2.652144    0.507285    1.722237
H     -2.749164   -1.254436    1.842454
H      2.275447    2.248088    0.261957
H      3.938976    2.375652   -0.444803
H     -0.719081    0.001857    1.338798
H     -0.332401   -1.365330    0.306557
H     -1.497486   -0.094676   -1.606063
