33

C     -3.780817   -0.793673    0.977187
C     -2.989383   -2.029266    0.784696
C     -2.901983    0.457686    0.847091
C      1.831949    2.429737   -0.790650
C      3.116328    2.080295   -0.435473
C     -1.778100   -2.029007    0.196895
C      0.801252    1.515437   -0.812549
C     -2.142905    0.289779   -0.452229
C      3.372777    0.770246   -0.090847
C      1.107396    0.212617   -0.459685
C      2.362460   -0.197984   -0.096385
C     -1.605238    1.506643   -1.022419
C      0.168430   -0.912655   -0.439312
C      4.191768   -1.136255    0.510174
N      5.046413   -2.025527    0.893160
N     -0.441543    2.046999   -1.193252
N      2.867749   -1.371468    0.275043
N     -1.229751   -0.802210   -0.259422
O     -2.607364    2.354448   -1.542309
O      0.602095   -2.065918   -0.590277
O      4.455051    0.120627    0.288186
H     -4.529573   -0.704913    0.136422
H     -4.344778   -0.782249    1.927846
H     -3.366602   -2.963111    1.112510
H     -2.168554    0.409231    1.668333
H     -3.548364    1.333969    0.855259
H      1.622176    3.452330   -1.061309
H      3.932602    2.794342   -0.416334
H     -1.214652   -2.947496    0.065943
H     -2.916813   -0.097516   -1.182911
H      6.043323   -1.771944    1.053216
H      2.426875   -2.288737    0.392524
H     -2.382224    3.145542   -2.132284
