50

C     -1.455848    1.250112   -1.272650
C      4.405332    2.406502    1.490925
C     -5.423735    0.378986    0.098036
C      5.212242    1.391752    1.057952
C      3.193480    2.632862    0.892518
C      3.132245   -3.697727   -0.820178
C      1.899982   -3.824458   -0.239638
C     -4.871633    1.223866    1.220193
C     -4.410126   -0.642057   -0.404433
C      4.827629    0.594228    0.031892
C      2.790806    1.818229   -0.162474
C      3.543339   -2.472862   -1.306662
C      1.083267   -2.726055   -0.147922
C     -3.440487    1.663366    0.975464
C     -3.341759   -0.714227    0.667554
C      3.176770   -0.060473   -1.735889
C     -0.618192   -0.580295    0.078138
C     -1.412700    0.678174    0.125436
C      3.600677    0.800220   -0.596087
C      2.715579   -1.352471   -1.215345
C      1.486107   -1.476632   -0.636902
N     -2.648499    0.496294    0.739288
O      0.662093   -0.380667   -0.541894
H     -1.750418    0.470752   -2.025623
H     -0.412456    1.539774   -1.534460
H     -2.070054    2.153827   -1.343477
H      4.685680    3.071121    2.318615
H     -5.742472    1.046352   -0.711120
H     -6.271443   -0.202796    0.507471
H      6.153774    1.230713    1.537263
H      2.526939    3.423272    1.204286
H      3.761323   -4.570217   -0.885051
H      1.571660   -4.760686    0.139356
H     -5.499525    2.160951    1.236146
H     -5.002774    0.772660    2.217233
H     -4.850283   -1.631822   -0.584158
H     -3.947550   -0.185827   -1.305833
H      5.449142   -0.204201   -0.317789
H      1.824879    2.042631   -0.611761
H      4.513145   -2.419640   -1.751860
H      0.098289   -2.782800    0.304877
H     -3.428390    2.395837    0.157342
H     -3.089215    2.133886    1.916872
H     -2.699636   -1.580466    0.591729
H     -3.897826   -0.840861    1.648547
H      4.058253   -0.188968   -2.412291
H      2.369297    0.445259   -2.308321
H     -1.111476   -1.344171   -0.596738
H     -0.532576   -0.996246    1.088787
H     -0.812859    1.414997    0.727414
