46

C     -6.383963    0.454380   -0.389316
C      5.733789    1.760472   -1.390251
C     -6.211347   -0.883354   -0.050414
C     -5.295945    1.195124   -0.780525
C      5.853844    0.382954   -1.339111
C      4.701357    2.351907   -0.693355
C     -4.944685   -1.435935   -0.115791
C     -4.016721    0.613356   -0.840220
C      4.979530   -0.394921   -0.620317
C      3.806927    1.593867    0.038684
C     -2.522002   -1.338395   -0.572970
C     -1.735036   -1.365480    0.687747
C     -0.442989    0.810057    0.443896
C      1.740151   -0.132207    1.257399
C     -3.827254   -0.693486   -0.512327
C      3.937141    0.231577    0.079785
C     -1.331355   -0.059005    1.265119
C      0.883484    0.238483    0.072502
C      3.062223   -0.671867    0.844610
O     -0.740166   -0.221071    2.535462
O      0.737390   -0.945313   -0.681550
O      3.700286   -1.386426    1.842963
H     -7.345104    0.914248   -0.350730
H      6.437395    2.333368   -1.963750
H     -7.052075   -1.495849    0.262783
H     -5.389223    2.219729   -1.046803
H      6.666234   -0.119069   -1.883352
H      4.567186    3.411495   -0.702034
H     -4.753283   -2.469854    0.136205
H     -3.185291    1.231659   -1.162390
H      5.098738   -1.482150   -0.597856
H      3.000059    2.050991    0.606488
H     -1.879846   -0.904269   -1.386852
H     -2.712217   -2.418728   -0.853122
H     -0.845885   -2.017066    0.524493
H     -2.303007   -1.941948    1.497761
H     -0.989004    1.207389   -0.446345
H     -0.248434    1.755023    1.058162
H      1.199941   -1.013267    1.732091
H      1.773714    0.637386    2.028809
H     -2.273519    0.592544    1.432783
H      1.365979    0.984255   -0.608666
H      2.800855   -1.498753    0.069149
H     -1.410820   -0.136536    3.255351
H      1.152596   -0.873666   -1.566416
H      4.640356   -1.071649    1.880597
