39

C     -2.572816   -3.260595   -0.396559
C      5.361137    0.297478   -0.247186
C     -1.852464    3.372634    1.007980
C     -0.866575   -1.539521    1.201175
C     -2.889173   -1.814454   -0.148553
C      4.428049    0.329236    0.916770
C     -2.428116    2.777008   -0.258839
C      0.880850    0.492113   -0.540399
C      0.196484   -0.376251   -1.494637
C      2.287111    0.018900   -0.268445
C     -2.130420    0.406759    0.325404
C     -1.612527   -0.976734    0.022014
N     -0.879815   -0.991991   -1.208123
O      0.688741   -0.586586   -2.798566
O      2.757970   -1.007019   -0.826425
O     -2.749921    0.563978    1.406422
O      3.117698    0.693801    0.606260
O     -1.963631    1.481480   -0.502928
H     -1.638102   -3.383050   -0.972134
H     -3.438941   -3.690511   -0.958155
H     -2.535626   -3.783144    0.570019
H      5.517095   -0.771808   -0.557396
H      6.375926    0.659060    0.061263
H      5.062334    0.930526   -1.096545
H     -2.136018    4.445111    1.019142
H     -0.755062    3.277098    1.052560
H     -2.352792    2.903615    1.886667
H     -0.805596   -0.838002    2.066951
H      0.142362   -1.889690    0.872386
H     -1.422005   -2.426930    1.621856
H     -3.450910   -1.720918    0.801762
H     -3.453248   -1.334942   -0.965536
H      4.819086    1.104468    1.633075
H      4.510656   -0.633192    1.457089
H     -3.528069    2.842992   -0.171911
H     -2.145839    3.407603   -1.133165
H      0.370818    0.442392    0.436998
H      0.986295    1.539156   -0.904447
H      0.105057   -0.960071   -3.515844
