81

C     -4.976215    1.261450    2.009418
C     -5.773635    1.508084   -0.272863
C      4.690602    1.946871    1.570366
C      5.279883    1.529671   -0.714597
C     -2.976266   -1.359260    1.792913
C      3.306807   -1.003248   -1.678024
C     -0.655068    0.900369    1.220280
C      0.329290    0.119808   -2.394526
C     -5.224772   -1.848172   -0.042735
C     -0.687320   -2.017103    0.280058
C      0.609628   -2.005621   -0.557502
C     -3.042330    1.474167   -0.364982
C      2.627015    1.724615   -0.638591
C      4.764644   -1.644584    0.841609
C     -5.754071   -0.712691    0.739168
C     -3.802278   -1.867623   -0.415858
C      3.290917   -1.726817    0.631367
C     -1.646612    1.488148   -0.891350
C      1.144476    1.750282   -0.806285
C     -3.596681    0.413076    0.198823
C      3.162116    0.647768    0.217783
C     -1.558450   -0.891769   -0.242656
C      1.261640   -0.701267   -0.225235
C      5.361853   -0.313294    0.987596
C     -5.020483    0.572303    0.675604
C      4.605072    0.852571    0.483141
C     -2.902694   -0.902704    0.377140
C      2.757376   -0.679794   -0.352134
C     -0.852844    0.443614   -0.188319
C      0.506420    0.380429   -0.910693
O      6.615912   -0.319598    0.323129
H     -3.999338    1.730724    2.206110
H     -5.720235    2.106781    2.065223
H     -5.305650    0.577950    2.844618
H     -5.323221    1.493085   -1.288583
H     -6.844619    1.210835   -0.346751
H     -5.732025    2.545774    0.087392
H      5.639714    2.513170    1.477576
H      4.692799    1.399160    2.542818
H      3.814756    2.591546    1.583834
H      4.907858    2.566766   -0.835622
H      6.358065    1.636188   -0.413047
H      5.258878    0.941371   -1.623145
H     -2.109094   -1.956722    2.146189
H     -3.206695   -0.513852    2.475257
H     -3.823554   -2.092129    1.978146
H      4.392810   -1.289374   -1.536322
H      2.848489   -1.966811   -2.014666
H      3.322667   -0.218023   -2.428676
H     -1.333540    1.765968    1.485556
H     -0.948926    0.118245    1.980522
H      0.339196    1.209549    1.520193
H     -0.662525   -0.153891   -2.722219
H      1.007880   -0.662501   -2.791291
H      0.593398    1.027553   -3.021155
H     -5.565707   -2.803705    0.469495
H     -5.821390   -1.898444   -1.007362
H     -1.235217   -2.948168    0.199193
H     -0.285511   -1.794504    1.312593
H      0.276026   -2.123701   -1.590532
H      1.142836   -2.902772   -0.265397
H     -3.671676    2.386651   -0.436400
H      2.938528    2.713347   -0.243400
H      3.142382    1.652796   -1.641871
H      5.275193   -2.239371    0.024713
H      4.964321   -2.293629    1.751328
H     -5.896955   -0.956983    1.838025
H     -6.827348   -0.506780    0.427148
H     -3.650605   -1.617046   -1.481220
H     -3.417158   -2.919301   -0.266543
H      2.724638   -1.658016    1.581059
H      3.099631   -2.770437    0.241655
H     -1.277767    2.519722   -0.719110
H     -1.736146    1.386921   -1.982771
H      0.986455    2.337140   -1.768484
H      0.671167    2.414688   -0.054685
H      2.644280    0.708667    1.223031
H     -1.701989   -1.133560   -1.317629
H      1.113946   -0.559615    0.890142
H      5.666733   -0.189914    2.072825
H      6.430310   -0.405026   -0.638858
