46

C     -2.711274   -1.964709   -0.214537
C     -1.764634   -0.927198   -0.679076
C      4.710008    0.844241   -0.646142
C      4.861979   -0.464724   -1.001567
C     -3.198640    1.257841    0.295327
C      3.478179    1.277876   -0.338647
C      3.768519   -1.250951   -1.024018
C      0.283374   -2.147491    1.240838
C     -2.270660    0.485402    1.158815
C     -0.294243   -0.806441    1.423503
C     -2.395558    2.331314   -0.475550
C      1.056340    2.268469    0.843050
C      2.286691    0.475452   -0.349757
C      1.055529    1.230180   -0.033197
C      2.437187   -0.825063   -0.701135
C      0.654247   -2.460270   -0.149948
C     -0.268492    2.855953    0.927913
C     -1.055855   -0.139299    0.390809
C     -0.314015    0.966901   -0.385861
N      1.518885   -1.866492   -0.813751
N     -1.055904    2.142767    0.042814
O     -0.064379   -3.552038   -0.733301
O     -0.608436    3.838417    1.682472
O     -0.463751    0.847017   -1.738982
H     -2.512791   -2.412314    0.772607
H     -3.776980   -1.656954   -0.215364
H     -2.678549   -2.810776   -0.953935
H     -2.427361   -0.178695   -1.263110
H     -1.123320   -1.308249   -1.478906
H      5.574713    1.526971   -0.611304
H      5.866858   -0.825993   -1.255373
H     -3.909059    0.724864   -0.313561
H     -3.832059    1.867123    1.012438
H      3.407220    2.339008   -0.063354
H      3.945728   -2.300398   -1.332471
H      1.227553   -2.304966    1.861569
H     -0.393357   -2.907778    1.673401
H     -2.828501   -0.402823    1.545650
H     -1.916899    1.023487    2.049163
H      0.564555   -0.119322    1.738187
H     -0.894387   -0.843279    2.391852
H     -2.716089    3.352067   -0.217611
H     -2.481122    2.202996   -1.551779
H      1.882379    2.663132    1.436447
H     -0.016445   -3.728168   -1.717389
H     -0.607182    1.682910   -2.227228
