31

C     -3.139481    1.749278    0.241983
C     -3.156462   -0.348528   -1.116267
C      0.896622   -2.585444    0.254186
C      3.734838    1.381570   -0.628605
C      3.865597    0.021341   -0.648948
C      2.559193    1.920117   -0.182578
C      2.816687   -0.800330   -0.221694
C      1.510689    1.098617    0.244494
C     -2.922932    0.254383    0.244083
C      0.544999   -1.172168    0.670612
C      1.634535   -0.275036    0.227131
C     -1.622328   -0.129245    0.822829
N     -0.741324   -0.766853    0.169784
O     -1.350977    0.220194    2.131718
H     -4.119477    2.042709    0.675935
H     -2.363261    2.221884    0.890181
H     -3.066315    2.197287   -0.765485
H     -4.044587    0.193717   -1.552530
H     -3.490344   -1.392351   -0.966102
H     -2.303004   -0.243979   -1.800445
H      1.725136   -3.001396    0.862228
H      0.034312   -3.283522    0.450355
H      1.197293   -2.663063   -0.806457
H      4.565905    1.986026   -0.966080
H      4.801105   -0.407963   -1.003855
H      2.422837    2.998650   -0.153703
H      2.986682   -1.872285   -0.263015
H      0.601204    1.551482    0.588604
H     -3.730603   -0.167719    0.911981
H      0.578238   -1.185425    1.799206
H     -0.424776    0.458051    2.461170
