46

C      5.877150   -0.726084    0.525940
C     -3.171215   -2.013713   -2.488449
C      5.162506    0.593979    0.676370
C     -2.109108   -1.120009   -1.900058
C      3.784878    0.534791    0.045475
C      2.947599   -0.528844    0.698015
C     -3.314660    1.624477    1.161310
C      1.580775   -0.612806    0.085410
C     -3.534991    0.137950    1.370976
C     -1.829500    1.914832    1.154321
C     -3.595421   -0.558941    0.033715
C      0.816020    0.678107    0.211173
C     -1.243707    1.880871   -0.238458
C     -2.241848   -1.087183   -0.397734
C     -0.580697    0.540127   -0.424287
O     -1.199260   -0.482038    0.241123
H      6.953122   -0.597169    0.745151
H      5.796977   -1.054098   -0.541678
H      5.461553   -1.487047    1.190554
H     -3.318899   -2.940535   -1.936719
H     -4.132198   -1.445501   -2.657357
H     -2.825497   -2.293465   -3.511860
H      5.107321    0.828442    1.758486
H      5.734121    1.384088    0.169937
H     -2.192112   -0.143691   -2.374215
H     -1.123374   -1.567907   -2.134833
H      3.318097    1.527013    0.275177
H      3.911712    0.366064   -1.027457
H      2.900398   -0.315364    1.789136
H      3.501256   -1.493888    0.621456
H     -3.736527    2.157916    2.050576
H     -3.831079    1.998178    0.271099
H      1.045542   -1.455601    0.612093
H      1.636222   -0.939842   -0.971822
H     -4.524529    0.042582    1.891285
H     -2.763016   -0.269232    2.044190
H     -1.620454    2.884531    1.650280
H     -1.358542    1.129900    1.807760
H     -4.036556    0.125844   -0.699599
H     -4.339695   -1.399596    0.151922
H      1.396512    1.460583   -0.328206
H      0.743056    0.953714    1.278474
H     -1.984034    2.113776   -1.020186
H     -0.466162    2.675495   -0.285140
H     -2.229441   -2.164715   -0.075291
H     -0.372293    0.323461   -1.498056
