49

C      4.170057    1.164079    0.356837
C     -1.279055   -0.436026    4.047877
C     -1.977481    3.618782   -1.564281
C     -2.455920   -3.243547   -2.310371
C     -1.551660   -1.497129    3.191753
C     -0.735009    0.710826    3.535570
C     -0.913363    3.014530   -2.191951
C     -2.541217    3.004068   -0.474918
C     -1.078261   -3.149816   -2.354747
C     -3.141217   -2.314392   -1.564849
C     -1.271208   -1.383493    1.835174
C     -0.465940    0.790149    2.166938
C     -0.421028    1.822631   -1.743626
C     -2.028477    1.793132   -0.032794
C     -0.475292   -2.136314   -1.653056
C     -2.525051   -1.304155   -0.866933
C      3.555992   -1.208439   -0.072622
C      1.782892    0.562653    0.156310
C      3.198124    0.233708   -0.291566
C     -0.722229   -0.234928    1.299155
C     -0.962406    1.174562   -0.651239
C     -1.157768   -1.201881   -0.904034
C     -0.428965   -0.113774   -0.150998
O      4.813436   -1.460210   -0.605967
O      0.908313   -0.291260   -0.438472
H      4.847491    0.612043    1.057368
H      4.806455    1.724448   -0.351308
H      3.616466    1.911741    0.965492
H     -1.486227   -0.496347    5.106438
H     -2.350600    4.578338   -1.950313
H     -2.925492   -4.045346   -2.866432
H     -1.980530   -2.404387    3.591541
H     -0.526024    1.528968    4.209928
H     -0.467435    3.509907   -3.062385
H     -3.376266    3.495835    0.005265
H     -0.479830   -3.859107   -2.930352
H     -4.239355   -2.418711   -1.550760
H     -1.499978   -2.224519    1.227817
H     -0.037638    1.745823    1.855635
H      0.405149    1.364905   -2.240957
H     -2.526433    1.362515    0.846378
H      0.625628   -2.096927   -1.715213
H     -3.121807   -0.626332   -0.315164
H      3.563954   -1.480365    0.996667
H      2.830929   -1.848029   -0.649894
H      1.633316    1.633593   -0.064702
H      1.773524    0.337822    1.254157
H      3.260693    0.422153   -1.402660
H      5.356741   -0.641776   -0.733741
