46

C     -2.406083   -0.986987   -1.809661
C     -1.735013    0.332317   -1.647926
C     -2.712903   -1.584230   -0.463760
C     -0.429941    0.250110   -0.924095
C     -3.344239    0.158746    1.270569
C     -5.005627   -1.062393    0.144031
C      2.496101    0.746583   -0.722378
C      4.943427    0.606434   -0.784764
C      3.949650    0.883179    1.333153
C      1.936965   -0.624319   -0.841391
C     -4.333506    0.839262    1.970862
C     -5.990797   -0.392175    0.834265
C      6.206183    0.595516   -0.232648
C      5.206776    0.875672    1.914809
C     -3.639159   -0.800326    0.347358
C      3.817748    0.748927   -0.013271
C      0.601844   -0.577726   -1.597105
C     -5.670626    0.571734    1.760957
C      6.342476    0.731342    1.131023
O      0.220095   -1.914594   -1.812770
O     -6.672700    1.253647    2.463084
O      7.619052    0.717472    1.662215
H     -3.378340   -0.866821   -2.397339
H     -1.814515   -1.642817   -2.459773
H     -1.615540    0.871605   -2.625903
H     -2.403733    0.986261   -0.993473
H     -3.190744   -2.591333   -0.669723
H     -1.795887   -1.825562    0.107246
H     -0.612212   -0.206882    0.087381
H     -0.041091    1.276397   -0.681294
H     -2.327332    0.421037    1.493725
H     -5.324520   -1.808147   -0.570230
H      1.813738    1.424868   -0.155632
H      2.655495    1.201281   -1.714059
H      4.857354    0.498457   -1.857317
H      3.077615    0.995257    1.946957
H      1.714941   -0.981074    0.206566
H      2.562993   -1.331039   -1.385618
H     -4.080611    1.596202    2.698524
H     -7.038263   -0.630874    0.641565
H      7.092032    0.481658   -0.856196
H      5.359876    0.978888    2.976862
H      0.856361   -0.165417   -2.601145
H      1.042236   -2.464697   -1.855754
H     -6.969901    0.844009    3.333772
H      8.160323    1.570556    1.777759
