46

C     -0.959691   -1.205899    2.362471
C     -0.547155   -1.614099    0.968892
C      3.586084    1.356240    2.269339
C      4.318682    0.295582    1.811402
C     -3.362064   -0.201810   -1.032219
C      2.381863    1.621265    1.675049
C      3.817542   -0.450713    0.782761
C      0.341386   -0.633630   -2.232930
C     -2.573805   -0.852932    0.029387
C     -0.793405   -1.316434   -1.502772
C     -2.817952    1.104367   -1.499602
C      0.302784    2.607326   -0.287990
C      1.831494    0.893152    0.630633
C      0.527442    1.333762    0.074750
C      2.573134   -0.190811    0.155683
C      1.552732   -1.367335   -1.786503
C     -1.018545    2.785338   -0.836547
C     -1.030174   -0.720759   -0.141877
C     -0.751675    0.680864    0.000465
N      2.275023   -1.063448   -0.873567
N     -1.602632    1.498443   -0.812543
O      1.777059   -2.535993   -2.603284
O     -1.537568    3.877175   -1.251422
O     -1.357027    0.976750    1.323029
H     -2.018318   -1.124157    2.555133
H     -0.316454   -0.402695    2.794216
H     -0.644879   -2.110751    2.999977
H     -1.043562   -2.647505    0.854294
H      0.535225   -1.756112    1.050977
H      3.980573    1.943277    3.077732
H      5.296903    0.044451    2.263457
H     -3.562962   -0.846440   -1.904301
H     -4.401068   -0.049172   -0.593765
H      1.888232    2.513827    2.120621
H      4.459186   -1.274606    0.476718
H      0.141470   -0.807852   -3.331174
H      0.385214    0.444490   -2.133703
H     -2.853694   -0.365374    0.993760
H     -2.755563   -1.943948    0.008771
H     -1.670921   -1.345446   -2.145857
H     -0.505558   -2.376397   -1.339412
H     -3.596624    1.885540   -1.359500
H     -2.592832    1.096514   -2.585653
H      0.990242    3.487001   -0.204690
H      2.498033   -3.160532   -2.321404
H     -1.146173    1.919488    1.501198
