40

C      2.926864   -2.121425    1.710213
C      2.365664    4.311286   -0.144740
C      2.713313   -2.492902    0.278921
C      2.178103    3.773051   -1.557172
C      1.542818   -1.786537   -0.346959
C     -5.111163   -1.137645    1.802805
C     -4.086232   -0.315031    2.207241
C     -4.998990   -1.792473    0.596797
C     -2.953669   -0.147901    1.408892
C     -3.864433   -1.621332   -0.196720
C      1.702075   -0.289742   -0.324281
C     -2.835567   -0.800259    0.201381
C      0.498006    0.399448   -0.964538
C     -1.653636   -0.625296   -0.631893
C      0.722480    1.888756   -0.908834
N     -0.710155    0.133773   -0.258059
O     -1.565758   -1.286662   -1.824791
O     -0.063141    2.664896   -0.326024
O      1.839673    2.417436   -1.525614
H      2.190128   -1.393364    2.105038
H      3.925218   -1.626826    1.817016
H      2.956827   -3.015056    2.371365
H      3.030667    5.195833   -0.211174
H      2.863049    3.516226    0.445781
H      1.370470    4.533618    0.255858
H      3.612311   -2.220349   -0.341417
H      2.600502   -3.575745    0.187283
H      3.115033    3.880343   -2.138321
H      1.368180    4.353455   -2.057255
H      0.567317   -2.084536    0.073781
H      1.519332   -2.074813   -1.439047
H     -5.992849   -1.263062    2.432185
H     -4.171190    0.196691    3.147125
H     -5.801320   -2.439266    0.275444
H     -2.138911    0.503099    1.725457
H     -3.787419   -2.141927   -1.143946
H      1.823326    0.056887    0.705407
H      2.608903   -0.014792   -0.883849
H      0.392000    0.067252   -2.016706
H     -0.697826   -1.625107   -2.226067
