43

C     -0.573488   -2.006524    1.680523
C      3.406740   -1.031947    0.613192
C      2.198002   -1.540957   -1.561153
C     -2.464317   -1.606770    0.203488
C     -2.478172   -0.086428    0.412617
C      1.113069    1.364817   -1.438298
C      0.121600    2.328630   -0.851048
C     -1.473422    2.249866    0.996274
C     -0.970131   -1.864685    0.241544
C     -1.381772    0.310744   -0.594809
C      1.792526    0.688433   -0.281249
C     -0.319954   -0.657529   -0.428149
C      0.904275   -0.298745    0.318930
C      2.277576   -0.684268   -0.313578
C     -1.163676    1.747383   -0.427335
O     -0.626509    1.749884    1.941083
O     -2.170382    2.413391   -1.187859
H     -1.218746   -2.835249    2.092340
H     -0.780601   -1.135316    2.303941
H      0.470784   -2.402880    1.792791
H      4.218460   -0.277709    0.597439
H      3.846015   -2.022631    0.389314
H      3.029099   -1.058609    1.658758
H      1.790068   -1.006640   -2.431074
H      1.663064   -2.491783   -1.348404
H      3.240373   -1.815583   -1.820206
H     -3.003559   -2.112454    1.005267
H     -2.852220   -1.797806   -0.800089
H     -3.441386    0.358079    0.156305
H     -2.175392    0.078469    1.445747
H      1.911174    1.981642   -1.949087
H      0.708706    0.704911   -2.194153
H      0.654483    2.824741    0.015021
H      0.027667    3.169795   -1.602240
H     -2.545411    2.145476    1.230523
H     -1.288446    3.363106    0.934058
H     -0.777144   -2.804845   -0.265954
H     -1.891621    0.119665   -1.590784
H      2.317140    1.424817    0.394140
H      0.010328   -1.052943   -1.436991
H      0.926440   -0.449918    1.429321
H     -1.092939    1.757738    2.819230
H     -1.938301    2.260632   -2.149388
