52

C     -6.567419    2.081573    0.330453
C      3.916274    3.385175   -0.802500
C     -4.793189   -2.107645    1.437405
C      6.520569   -0.053012    1.184004
C     -2.467293    2.156860   -0.170036
C     -3.814870    2.121112   -0.005104
C      1.787541   -2.708020   -0.281366
C      0.303554   -2.670918   -0.226326
C     -0.303420    0.990830   -0.387320
C      2.458663    0.920358   -0.668421
C     -1.706924   -1.527389   -0.118172
C     -1.774218    0.944953   -0.206784
C      2.442987   -1.407045   -0.368362
C      1.732261   -0.274714   -0.605831
C     -2.432700   -0.259474   -0.079804
C      0.278237   -0.326779   -0.785508
C     -4.488526    0.905602    0.124143
C      3.826304    0.951863   -0.498397
C      3.832728   -1.393655   -0.193246
C     -3.800621   -0.298266    0.087710
C      4.527175   -0.208920   -0.258574
N     -0.270778   -1.375585    0.008092
O      4.554646   -2.551611    0.048688
O     -5.848747    0.865806    0.290762
O      4.537652    2.137870   -0.561693
O     -4.519988   -1.477559    0.221087
O      5.911593   -0.206309   -0.082694
H     -6.188597    2.697126    1.165724
H     -6.422684    2.623903   -0.635559
H     -7.657238    1.873139    0.474033
H      4.562120    4.222138   -0.480864
H      2.973724    3.431112   -0.185272
H      3.662259    3.461113   -1.864645
H     -5.842868   -2.515243    1.363061
H     -4.788978   -1.420616    2.311030
H     -4.147380   -2.997167    1.611679
H      5.760990    0.025266    1.970414
H      7.133047    0.875325    1.186896
H      7.160589   -0.936872    1.404673
H     -1.955823    3.102857   -0.269068
H     -4.374685    3.062928    0.026030
H      2.136120   -3.185775    0.682342
H      2.185711   -3.364615   -1.083656
H     -0.082869   -3.026705   -1.216610
H     -0.106952   -3.366179    0.535596
H      0.186914    1.420593    0.515004
H     -0.078470    1.706319   -1.232785
H      1.915145    1.821609   -0.854505
H     -2.054573   -2.181752    0.706744
H     -1.895189   -2.008530   -1.100729
H      0.008494   -0.499859   -1.848452
H      4.069701   -3.435219    0.100604
