37

C      0.732903   -2.653744   -0.606945
C     -3.199085    0.808664   -0.413949
C     -3.163927   -0.897502    1.327193
C      2.256281   -0.816830   -0.552338
C      0.832510    1.739567    0.221948
C     -1.259516    0.719526    1.066640
C     -1.494948   -1.025749   -0.546803
C      4.126686    0.573055   -1.002323
C      2.974083    2.636537    0.610144
C      0.896394   -1.246219   -0.088077
C     -0.325638    0.955511   -0.130342
C      2.800144    0.410819   -0.480310
C      2.144257    1.560023    0.104412
C     -0.159551   -0.369207   -0.709665
C     -2.313571   -0.118444    0.371497
O      4.717272   -0.467226   -1.481842
O      4.204538    2.619263    0.599535
H      1.712008   -3.162700   -0.748377
H      0.191176   -3.228895    0.172928
H      0.124337   -2.716119   -1.523102
H     -4.255279    0.434082   -0.373299
H     -3.185957    1.822904    0.061744
H     -2.931953    0.841552   -1.488537
H     -4.227507   -0.913779    0.981067
H     -3.177519   -0.477313    2.349293
H     -2.862180   -1.975706    1.399463
H      2.883890   -1.555012   -0.993321
H      0.596346    2.703243    0.693800
H     -0.731642    0.178488    1.863825
H     -1.662793    1.688719    1.411948
H     -1.466425   -2.007196   -0.059234
H     -2.026967   -1.029678   -1.519986
H      4.711215    1.449711   -1.056428
H      2.489185    3.518808    1.026482
H      0.909993   -1.258228    0.998875
H     -0.952479    1.571257   -0.842516
H      0.093716   -0.312185   -1.800276
