41

C      4.034497   -1.510740   -0.496110
C      3.083894   -0.290575   -2.338373
C      0.854556    0.978050    2.237910
C     -0.832366    1.857270    0.004614
C     -2.828531    0.274324    1.736181
C     -1.556494    0.540643    2.406739
C      0.014876   -0.734627   -1.903496
C     -2.837156    0.132224    0.269764
C     -1.446208   -0.443391   -1.729096
C      3.005685   -0.862397   -0.988173
C     -0.302981    0.164220    1.654877
C      0.640227   -0.006099   -0.706133
C      1.806844   -0.709845   -0.198022
C     -0.438940    0.390146    0.204105
C     -1.590910   -0.510911   -0.236256
O      1.859795   -1.237607    0.957832
O     -1.421506   -1.798282    0.192409
H      4.925588   -1.604768   -1.114638
H      4.022747   -1.952759    0.503795
H      4.142420   -0.185187   -2.689896
H      2.512973    0.627096   -2.471933
H      2.662426   -1.073283   -3.034702
H      0.390303    1.891596    2.726496
H      1.509868    1.401662    1.460834
H      1.382521    0.449483    3.035225
H      0.089117    2.435581    0.310142
H     -1.007044    2.113945   -1.043692
H     -1.610756    2.157804    0.711730
H     -3.588421    1.069385    2.001509
H     -3.277598   -0.665971    2.175201
H     -1.492121    0.007998    3.397199
H     -1.461226    1.615855    2.661093
H      0.204338   -1.812470   -1.725358
H      0.408194   -0.385345   -2.871918
H     -3.018872    1.081340   -0.277445
H     -3.687483   -0.533590   -0.070864
H     -2.003664   -1.267034   -2.241593
H     -1.703051    0.543616   -2.134769
H     -0.135973   -0.910451    1.855459
H      1.007588    0.962067   -1.189349
H     -2.317155   -2.198975    0.331664
