17

C      0.069756    1.487136    0.034948
C      1.329678    1.160697   -0.171478
C     -0.836182    0.400731    0.459601
C      1.785432   -0.268863    0.028345
C     -0.570906   -0.747055   -0.492623
C      0.803209   -1.284219   -0.199962
O     -2.170071    0.770772    0.467360
O     -1.561146   -1.721067   -0.428525
O      1.807717   -1.084604   -1.147418
H     -0.288197    2.477850   -0.094153
H      2.040541    1.929285   -0.487378
H     -0.518230    0.090005    1.491546
H      2.673466   -0.345318    0.685126
H     -0.561254   -0.339728   -1.545745
H      0.858564   -2.224983    0.390351
H     -2.435601    0.940978    1.421147
H     -2.426774   -1.241618   -0.411141
