55

C      6.277305    1.481890    0.377554
C     -4.622106    2.942013    0.953134
C     -3.023782   -1.560402   -2.179974
C     -2.563310   -3.173213   -0.374544
C      6.476865   -0.016460    0.307570
C      5.784632   -0.513637   -0.931738
C      4.320567   -0.195023   -0.873370
C      3.632314   -0.832136    0.317148
C     -4.540604    0.445171    1.177054
C     -4.121460   -0.744413    0.306081
C     -2.489960    1.646070    0.717756
C      1.747130    0.693787    0.867066
C      1.311152   -1.228404   -0.425942
C     -4.004530    1.662369    0.452954
C      2.206245   -0.442174    0.256003
C     -1.944429    0.496749   -0.045119
C     -2.645591   -0.802275    0.178080
C      0.389847    1.030982    0.787644
C     -0.028209   -0.900388   -0.507255
C     -0.499432    0.246060    0.107612
C     -2.275983   -1.786123   -0.906905
O     -0.068029    2.161487    1.395948
O     -0.881728   -1.748676   -1.218597
H      7.251851    1.984127    0.559040
H      5.594738    1.696844    1.241859
H      5.848142    1.902780   -0.552353
H     -5.721985    2.788592    0.981985
H     -4.349939    3.741752    0.237902
H     -4.214291    3.131534    1.966866
H     -4.003554   -2.070403   -2.217440
H     -3.091991   -0.487215   -2.427144
H     -2.418472   -2.020578   -3.009188
H     -3.507222   -3.582701   -0.770348
H     -1.756996   -3.903139   -0.669727
H     -2.540898   -3.166906    0.745837
H      6.124190   -0.534203    1.216388
H      7.566851   -0.214408    0.166366
H      5.877345   -1.627463   -1.036081
H      6.208037    0.015703   -1.800940
H      4.106186    0.880555   -0.842046
H      3.846584   -0.592393   -1.794467
H      3.685623   -1.933158    0.224072
H      4.085792   -0.513062    1.274207
H     -3.982590    0.373332    2.142711
H     -5.622253    0.468919    1.320337
H     -4.462595   -1.659096    0.841195
H     -4.666631   -0.631893   -0.648515
H     -2.072449    2.591492    0.313903
H     -2.394157    1.552824    1.815850
H      2.445432    1.308575    1.400008
H      1.672086   -2.130015   -0.911646
H     -4.194452    1.506890   -0.628760
H     -2.088876    0.746157   -1.139386
H     -2.238431   -1.236657    1.135423
H      0.578020    2.749960    1.901379
