39

C      3.712306   -0.165044   -1.196302
C      3.497230    1.267714    0.735127
C     -1.580449   -0.355226   -2.382645
C     -2.674705   -1.167805    1.153371
C     -2.011377    1.980938    0.583814
C     -2.095334    1.333359   -0.741156
C     -1.724455    1.027172    1.692393
C      1.320757   -1.533388   -0.783798
C     -0.101588   -1.763510   -0.323164
C      0.658326    0.426023    0.281988
C      3.025134    0.153372   -0.117306
C     -1.438269    0.224137   -1.031587
C     -1.398512   -0.367234    1.288154
C      1.815929   -0.565706    0.251896
C     -0.589413   -0.392912    0.004952
H      3.399403   -0.976934   -1.848933
H      4.625700    0.374442   -1.479581
H      4.301499    1.863423    0.283065
H      2.641231    1.904497    1.056057
H      3.910151    0.836566    1.689065
H     -2.317985    0.202730   -3.003207
H     -1.967269   -1.405216   -2.372284
H     -0.633095   -0.362429   -2.947192
H     -3.168088   -1.139889    2.153992
H     -3.356894   -0.658513    0.457766
H     -2.479001   -2.217540    0.904588
H     -2.967893    2.548961    0.747568
H     -1.224228    2.791260    0.562131
H     -2.720368    1.783407   -1.510067
H     -0.950979    1.418457    2.400615
H     -2.658188    0.970561    2.323541
H      1.329075   -1.077571   -1.780467
H      1.921852   -2.465175   -0.744310
H     -0.689910   -2.307297   -1.072968
H     -0.066734   -2.360973    0.635763
H      0.828640    1.210025   -0.472358
H      0.670841    0.871429    1.296101
H     -0.779875   -0.829039    2.077898
H      1.936537   -1.077073    1.227480
