29

C     -3.364940   -1.091014   -0.460934
C      2.071070   -0.111772    0.212201
C     -1.571793    0.594299   -0.345117
C      2.354411   -2.449374    0.348243
C     -2.007423   -0.741370    0.159931
C      2.908640   -1.195065    0.374138
C      0.702802   -0.331104    0.029664
C      0.228327   -1.604440    0.015738
C      0.150909    1.810056    0.967267
C      0.870936    2.727631   -0.922932
C     -0.123758    0.886753   -0.136673
Cl     4.648690   -0.962017    0.608173
N      0.730546    2.875654    0.486371
N      0.391638    1.604387   -1.295995
N      1.041493   -2.657974    0.173013
O     -0.122654    1.657244    2.308728
O      1.440331    3.646002   -1.804148
O      0.500475   -3.923624    0.149045
O     -1.136987   -1.789655   -0.167769
H     -3.193861   -1.622501   -1.412774
H     -3.979671   -0.205717   -0.630038
H     -3.930172   -1.787122    0.198328
H      2.489234    0.878284    0.229941
H     -2.184735    1.366492    0.202723
H     -1.878736    0.696349   -1.410416
H      2.987927   -3.312954    0.472536
H     -2.156209   -0.695794    1.265151
H      0.084683    2.401331    2.959569
H      2.048828    3.337013   -2.573963
