34

C      2.665468    1.547916   -1.450668
C      3.097552   -1.717470    1.308521
C     -2.298314   -0.946191    1.107029
C     -2.107281   -1.783174   -1.260881
C      0.294049    0.830210    0.432601
C      2.386414    0.270795   -0.764095
C      1.723030   -1.095138    1.182036
C      1.673128    0.222959    0.554071
C     -0.564865    0.133109   -0.554022
C     -1.969903    0.708510   -0.750799
C     -2.491942    1.713929    0.183597
C     -1.711071   -0.707440   -0.245301
O      2.744807   -0.769948   -1.281931
O      0.774745   -1.720033    1.602229
O     -2.264074    1.701467    1.415958
O     -3.279622    2.741286   -0.290219
H      1.816803    1.823309   -2.081811
H      3.567909    1.510561   -2.086166
H      2.847672    2.338988   -0.694181
H      3.357053   -1.613431    2.401596
H      3.070570   -2.786418    1.034062
H      3.855201   -1.186498    0.729941
H     -1.732414   -0.529982    1.939015
H     -3.365254   -0.599550    1.071276
H     -2.382789   -2.056087    1.300296
H     -3.214575   -1.689854   -1.376238
H     -1.582171   -1.541914   -2.215254
H     -1.806814   -2.784521   -0.903837
H      0.454849    1.879426    0.072055
H     -0.133790    0.859041    1.460496
H      2.241113    0.934053    1.228724
H     -0.016899   -0.134010   -1.507894
H     -2.276584    0.838678   -1.817770
H     -3.372002    3.607420    0.257567
