38

C      4.300326    2.754721   -0.076615
C      3.427840   -2.631762    0.896474
C     -3.189649   -1.206408   -1.479118
C     -4.086184   -0.273036   -0.728020
C     -1.750550   -0.740551   -1.506391
C     -3.202900    0.703718    0.020476
C      0.426321    1.148925   -0.259270
C      1.698533    1.677049   -0.199439
C      1.245979   -0.981311    0.277941
C      0.160647   -0.187121   -0.024346
C     -1.179818   -0.771845   -0.081735
C     -2.181989   -0.114066    0.804232
C      2.775514    0.871085    0.104129
C      2.522333   -0.463220    0.340333
N     -1.580665    0.672288    1.860324
O      4.073821    1.394747    0.168270
O      3.633962   -1.263161    0.647215
H      3.768084    3.421236    0.613425
H      4.058162    3.025559   -1.130790
H      5.394002    2.937278    0.078994
H      2.629820   -2.749533    1.637150
H      4.359158   -3.036553    1.377438
H      3.222717   -3.179655   -0.063253
H     -3.189173   -2.227828   -1.038734
H     -3.512754   -1.329957   -2.540013
H     -4.732689    0.273949   -1.446687
H     -4.762448   -0.781010   -0.021990
H     -1.198156   -1.523219   -2.106347
H     -1.602409    0.228078   -1.991702
H     -2.738276    1.358143   -0.737304
H     -3.807294    1.308872    0.746736
H     -0.393108    1.785350   -0.494922
H      1.893383    2.724264   -0.385321
H      1.094752   -2.054068    0.474685
H     -1.099780   -1.860169    0.148911
H     -2.775313   -0.918150    1.296490
H     -1.832311    0.315688    2.808412
H     -1.869888    1.691673    1.791914
