29

C     -2.725309   -0.281620    1.349820
C     -1.825171    1.996429    1.757268
C      2.405368   -0.163160   -3.668754
C      2.178276    0.853767   -2.773537
C      2.037681   -1.444993   -3.367843
C      1.565777    0.537536   -1.557208
C      1.425202   -1.744705   -2.147585
C      0.490506    0.922863    2.982145
C     -1.748060    0.524167    2.145817
C      1.189822   -0.738552   -1.240751
C     -0.339401   -0.018445    2.114336
C      0.520368   -0.973356    0.052012
N      1.068196    1.603676    3.610062
N      0.286431    0.014236    0.848959
O      0.138366   -2.234169    0.425827
H     -3.366711    0.424969    0.765928
H     -3.426774   -0.802640    2.044521
H     -2.281416   -0.999875    0.636578
H     -0.923136    2.563271    2.075033
H     -1.995047    2.140956    0.687916
H     -2.672644    2.497870    2.299636
H      2.897597    0.114798   -4.621029
H      2.477391    1.839983   -3.053853
H      2.237303   -2.203261   -4.108589
H      1.418197    1.363320   -0.893351
H      1.135608   -2.743628   -1.909749
H     -2.095969    0.496681    3.225621
H     -0.278669   -1.004620    2.578755
H      0.206219   -2.541497    1.382595
