42

C      5.116509    0.896093    0.192640
C      5.820646   -0.606957   -1.729748
C      0.440884   -0.050275    1.883355
C     -4.003012   -1.670731   -0.244172
C     -1.803627    0.331170   -1.180274
C     -3.081828    0.258598   -1.509573
C      3.495011   -0.402671   -1.056254
C      0.981810   -0.330014   -0.505116
C     -2.352743    0.521048    1.190377
C      4.743982   -0.052879   -0.870046
C      0.035917    0.343882    0.472891
C     -1.403710   -0.055553    0.195225
C      2.381326    0.082063   -0.272392
C     -3.771580    0.621727    0.752447
C     -4.074754   -0.202894   -0.505261
O      2.611444    0.897244    0.657138
O     -4.059013    1.946798    0.390545
O     -5.376060    0.172572   -0.891892
H      4.850151    0.543448    1.209019
H      6.209473    1.079187    0.206941
H      4.629162    1.899750    0.052926
H      6.425651   -1.328477   -1.110101
H      5.404847   -1.156786   -2.589169
H      6.481172    0.234744   -2.024909
H      1.366685   -0.672580    1.877722
H     -0.331855   -0.650471    2.384343
H      0.708218    0.868501    2.456072
H     -3.607554   -1.932766    0.761019
H     -3.381631   -2.129061   -1.063124
H     -5.033609   -2.110945   -0.312633
H     -1.106797    0.671124   -1.931183
H     -3.382706    0.536746   -2.505407
H      3.267276   -1.101803   -1.847808
H      0.744588   -0.064372   -1.554183
H      0.919261   -1.429359   -0.385697
H     -1.997534    1.556491    1.447291
H     -2.311220   -0.131098    2.113311
H      0.108486    1.440145    0.336306
H     -1.397180   -1.177098    0.201318
H     -4.446394    0.330350    1.580040
H     -3.837664    2.572148    1.129501
H     -5.982028   -0.547040   -0.600606
