37

C     -2.324423    1.308761    2.139653
C     -3.063022    0.575190   -2.102429
C      2.492685   -2.746639   -0.582341
C      2.065231   -1.423165    1.532400
C      2.172840    3.200513   -0.568419
C     -0.795034   -0.923481    0.635810
C     -2.678717    0.667626    0.858706
C     -2.254835   -0.378676   -1.291862
C     -1.614449    0.143421   -0.060770
C      0.277629   -1.430288   -0.269020
C      1.326151   -0.521642   -0.803588
C      1.560892    0.829426   -0.275874
C      1.678769   -1.645627    0.115399
O     -3.831554    0.560437    0.541360
O     -2.140741   -1.519923   -1.639240
O      1.431077    1.123322    0.941152
O      1.951838    1.903169   -1.102006
H     -3.215096    1.706423    2.635941
H     -1.777501    0.543952    2.754029
H     -1.599565    2.155800    2.000900
H     -2.550509    0.887446   -3.030596
H     -4.047261    0.122266   -2.370714
H     -3.297181    1.495728   -1.532504
H      3.470967   -2.281977   -0.830155
H      2.023610   -3.051863   -1.523070
H      2.691025   -3.576929    0.100464
H      1.227201   -1.320672    2.247894
H      2.816599   -0.600114    1.661434
H      2.631484   -2.335338    1.889701
H      2.164895    3.200406    0.539984
H      1.482994    3.946220   -0.979971
H      3.203003    3.487213   -0.889489
H     -0.422020   -0.426093    1.566976
H     -1.516874   -1.730741    0.911924
H     -0.929493    0.944962   -0.373672
H     -0.112229   -2.245318   -0.957129
H      1.501612   -0.643797   -1.890877
