38

C      3.978691    0.710589   -2.416498
C      3.201638    1.653828   -0.212343
C     -4.477741    1.030039   -0.902338
C      0.222212   -2.119393    2.287044
C     -2.543881    1.508498    0.412098
C     -3.461145   -0.823716    0.338849
C     -1.508476    1.133428    1.143944
C     -1.946291   -1.161807    0.354748
C      2.358833   -0.464887   -1.126713
C      1.145418   -0.117026    1.164371
C      3.102246    0.587552   -1.173663
C     -3.542829    0.584021   -0.089833
C     -0.024095   -0.686597    1.938802
C     -1.368623   -0.327661    1.466575
C      1.450575   -0.825021   -0.084983
O      0.789856   -1.928939   -0.241236
H      5.015518    0.515885   -2.069191
H      3.882303    1.764894   -2.736915
H      3.654021    0.036251   -3.209059
H      2.363438    2.400393   -0.257001
H      4.113566    2.306418   -0.466916
H      3.354591    1.397805    0.839075
H     -4.518965    2.065763   -1.203497
H     -5.220036    0.333973   -1.273608
H     -0.216175   -2.859168    1.598546
H      1.339613   -2.263027    2.279892
H     -0.074571   -2.329700    3.351130
H     -2.618697    2.576205    0.194150
H     -4.006828   -1.522467   -0.289010
H     -3.751750   -0.856519    1.412800
H     -0.766442    1.813516    1.517580
H     -1.810248   -2.218808    0.536358
H     -1.595249   -0.811358   -0.659875
H      2.400881   -1.206585   -1.979791
H      2.067424   -0.227563    1.821243
H      1.035464    0.944251    0.962636
H      0.091385   -0.150825    2.973712
H     -2.115631   -0.462241    2.321085
