37

C      2.330681   -0.976070   -1.617301
C      3.992168    1.358929    1.678778
C     -0.932073   -1.433257   -2.435820
C     -0.984090   -1.981898    0.022846
C     -4.681564    1.266828    1.612314
C      0.386511    0.643381    0.443123
C      2.548406   -0.413896   -0.279505
C      2.532690    1.175055    1.555545
C      1.876694    0.748800    0.276492
C     -0.389270    0.431845   -0.801926
C     -1.870743    0.311719   -0.768797
C     -2.618316    0.511173    0.488462
C     -1.041740   -0.907721   -1.004310
O      3.385917   -0.999684    0.424348
O      1.824930    1.372677    2.517108
O     -2.213263    0.242818    1.639812
O     -3.918504    1.053910    0.435935
H      1.893098   -0.264387   -2.333623
H      3.354671   -1.272883   -2.017325
H      1.755900   -1.947816   -1.564679
H      4.250652    2.410006    1.896305
H      4.367847    0.751579    2.539041
H      4.556619    1.049130    0.799061
H     -0.433218   -2.417980   -2.396001
H     -0.333145   -0.775516   -3.070118
H     -1.951297   -1.617403   -2.838773
H     -1.647498   -2.812865   -0.345775
H     -1.192644   -1.699727    1.048164
H      0.048326   -2.441101    0.042816
H     -4.096263    1.703384    2.432010
H     -5.443783    2.050521    1.331965
H     -5.247843    0.357219    1.915562
H      0.230234   -0.264597    1.105096
H     -0.008514    1.490941    1.064990
H      2.022453    1.653630   -0.404891
H      0.036369    0.995276   -1.680117
H     -2.390397    0.647977   -1.710810
