38

C      5.463973   -0.424111    0.297195
C      3.409429   -0.792840   -1.140070
C     -5.111928   -1.638435   -0.258258
C     -0.361257    2.241538    0.944513
C     -3.988943    0.397941    0.377191
C     -3.011877   -1.053037   -1.404372
C     -2.809465    0.970695    0.477720
C     -1.715556   -0.970407   -0.582269
C      3.345033    0.295240    1.107013
C      0.901433    0.240755    0.220029
C      3.960495   -0.272845    0.126425
C     -4.097443   -0.812981   -0.418951
C     -0.441151    0.744521    0.741575
C     -1.581877    0.457162   -0.171491
C      1.938501    0.562584    1.209033
O      1.589462    1.157489    2.318586
H      5.847989    0.403741    0.895017
H      5.953033   -0.454970   -0.688605
H      5.670491   -1.369003    0.818326
H      2.989033   -0.005449   -1.796879
H      2.657704   -1.567997   -0.985466
H      4.242062   -1.267635   -1.743092
H     -5.188972   -2.531732   -0.847925
H     -5.876557   -1.433880    0.462228
H     -1.016264    2.771162    0.215960
H     -0.667395    2.512800    1.997338
H      0.657312    2.642659    0.773669
H     -4.886602    0.784723    0.859801
H     -3.043644   -0.178768   -2.113519
H     -3.098825   -2.019337   -1.924328
H     -2.727391    1.885797    1.079815
H     -1.855541   -1.647526    0.281907
H     -0.898947   -1.323508   -1.217215
H      3.972116    0.615942    1.973937
H      0.793972   -0.864292    0.165861
H      1.024060    0.665567   -0.769978
H     -0.619756    0.215003    1.704642
H     -1.416705    1.063435   -1.100395
