42

C      5.665436    1.235149   -1.283421
C      5.241517   -0.359802    0.681808
C      0.337571    0.865319    1.025671
C     -4.858959    1.113192    0.283318
C     -2.085287   -0.753471    1.463091
C     -3.364676   -0.442408    1.441793
C      3.476406    0.187292   -0.886869
C      1.114818   -0.815276   -0.636649
C     -1.865179   -0.140512   -0.925299
C      4.727607    0.346738   -0.511583
C      0.157320   -0.554046    0.522882
C     -1.261573   -0.906867    0.219560
C      2.518883   -0.648026   -0.192617
C     -3.338867   -0.338974   -1.052107
C     -4.124593   -0.212853    0.205091
O      2.891548   -1.259593    0.836626
O     -3.804384    0.676793   -1.925039
O     -5.145861   -1.195681    0.186489
H      5.685943    2.219093   -0.757552
H      6.650028    0.760558   -1.273241
H      5.303992    1.287169   -2.315463
H      6.340022   -0.130680    0.828188
H      4.737993   -0.070257    1.617773
H      5.190491   -1.461294    0.540183
H     -0.510325    1.125615    1.686924
H      0.483368    1.560800    0.172100
H      1.253874    0.885600    1.646583
H     -5.496159    1.249215   -0.628672
H     -4.165880    1.975019    0.416875
H     -5.540091    1.119788    1.156580
H     -1.597913   -0.907266    2.407731
H     -3.923677   -0.338877    2.379338
H      3.141988    0.712808   -1.772404
H      1.023962   -1.895571   -0.927030
H      0.872224   -0.227794   -1.538996
H     -1.644290    0.926808   -0.938306
H     -1.417650   -0.564857   -1.874016
H      0.519485   -1.215441    1.360716
H     -1.331832   -1.993988   -0.043059
H     -3.584701   -1.288273   -1.578423
H     -3.489142    1.534369   -1.543934
H     -4.783440   -2.059521   -0.123203
