42

C      4.979782    0.256686   -1.634552
C      5.503920   -1.262220    0.306767
C      0.405833   -0.948290   -0.520365
C     -4.307558   -1.491601    0.929680
C     -2.176776    0.160347   -1.213426
C     -3.380053   -0.274961   -0.969425
C      3.396959   -0.004895    0.199390
C      1.141558    1.245706    0.236439
C     -1.713816    0.444659    1.141021
C      4.541869   -0.310924   -0.341252
C      0.116115    0.532538   -0.578625
C     -1.301643    0.859818   -0.232925
C      2.474153    0.899402   -0.408985
C     -3.209907    0.735961    1.238642
C     -4.036296   -0.123559    0.339508
O      2.758943    1.432933   -1.511986
O     -3.415739    2.067120    0.879738
O     -5.248352    0.566583    0.122618
H      5.050571    1.363644   -1.500007
H      4.268381   -0.020396   -2.436419
H      5.961210   -0.159337   -1.966852
H      6.130642   -0.668521    0.984362
H      4.957854   -2.091953    0.820856
H      6.163087   -1.741744   -0.444976
H      0.701136   -1.280865    0.498901
H     -0.502258   -1.523822   -0.800774
H      1.241164   -1.234881   -1.202120
H     -5.391291   -1.586911    1.093553
H     -3.750972   -1.575310    1.888096
H     -3.944695   -2.286915    0.232209
H     -1.802881   -0.021040   -2.241908
H     -3.966266   -0.785899   -1.753757
H      3.139590   -0.457501    1.148210
H      1.056042    2.342813    0.236573
H      1.217495    0.903167    1.273090
H     -1.476839   -0.590689    1.398876
H     -1.227407    1.131881    1.863110
H      0.266272    0.836785   -1.650335
H     -1.476835    1.931943   -0.346220
H     -3.560714    0.643442    2.292129
H     -3.592332    2.174924   -0.094807
H     -5.989948   -0.088117   -0.010277
