50

C      4.927961   -2.355540   -1.230377
C      4.204709   -1.290785   -1.724274
C      5.246471   -2.447493    0.089903
C      3.803170   -0.304946   -0.843421
C      4.824744   -1.429609    0.960939
C     -3.440365   -0.163094   -0.187710
C     -2.780094   -2.435904   -0.254086
C      0.376306    4.113197    0.073649
C     -0.866891    2.773103   -1.480998
C      3.647137    0.728621    1.403197
C      4.103583   -0.358697    0.497289
C     -2.437745   -1.103352   -0.244797
C     -0.451951    4.022751   -1.013954
C      0.801446    2.926151    0.710852
C     -4.775881   -0.513164   -0.139793
C     -4.110307   -2.809941   -0.206661
C     -0.443911    1.637163   -0.850278
C      0.406188    1.712881    0.264497
C     -5.081515   -1.854834   -0.150724
C     -0.491666   -0.334488    1.098330
C     -1.044618   -0.682608   -0.294697
C      0.786513    0.434019    0.832942
O     -0.885104    5.170973   -1.660611
O      1.631998    3.005479    1.810666
O     -5.728574    0.494295   -0.083405
O     -4.421858   -4.147664   -0.217677
O     -6.423201   -2.199177   -0.102074
O     -0.180883   -1.476802    1.795089
O     -0.798205    0.356084   -1.227480
S      2.019841    0.389975    2.087382
H      5.236043   -3.123444   -1.937860
H      3.970050   -1.250948   -2.777035
H      5.813580   -3.299234    0.430268
H      3.236688    0.518945   -1.259075
H      5.079164   -1.511711    1.989495
H     -3.180274    0.899229   -0.179567
H     -2.040232   -3.199420   -0.297003
H      0.726994    5.054847    0.477320
H     -1.531273    2.683601   -2.351184
H      4.436546    0.787949    2.200293
H      3.709031    1.685816    0.850883
H     -1.250548    0.284229    1.613325
H     -0.401525   -1.548965   -0.625869
H      1.239480   -0.147944   -0.066831
H     -1.748730    5.589166   -1.331384
H      1.960751    3.895732    2.188705
H     -6.722754    0.309625   -0.044831
H     -3.714427   -4.874473   -0.258982
H     -6.679074   -3.167287   -0.108781
H     -0.556791   -1.442305    2.714359
