50

C      5.709182   -1.845406   -0.958501
C      4.429329   -2.222841   -1.299526
C      5.876128   -1.242648    0.278691
C      3.340551   -2.012124   -0.444346
C      4.802574   -1.034487    1.122916
C     -4.050996   -0.105538    0.193370
C     -2.673904   -1.813824   -0.639768
C      1.228769    4.310971   -0.682196
C     -1.088985    3.831050   -0.514879
C      2.371756   -1.170716    1.723285
C      3.522447   -1.413247    0.779228
C     -2.757872   -0.576698   -0.048283
C     -0.068888    4.751923   -0.690140
C      1.521683    2.968203   -0.502306
C     -5.170951   -0.806172   -0.126448
C     -3.810061   -2.558748   -0.980160
C     -0.816613    2.472122   -0.331784
C      0.482601    2.081379   -0.331126
C     -5.068194   -2.058972   -0.725372
C     -0.325980   -0.271549   -0.279852
C     -1.581576    0.255589    0.329809
C      0.842513    0.651207   -0.140735
O     -0.406507    6.078900   -0.865657
O      2.859032    2.595571   -0.505669
O     -6.439119   -0.294823    0.133966
O     -3.626986   -3.784133   -1.566822
O     -6.238482   -2.743990   -1.037040
O      0.013679   -1.461183    0.360248
O     -1.845898    1.563612   -0.157820
S      1.656776    0.425442    1.431068
H      6.562877   -1.998440   -1.602818
H      4.273426   -2.699779   -2.271389
H      6.876822   -0.935107    0.572591
H      2.346268   -2.323202   -0.744485
H      4.914600   -0.561536    2.099707
H     -4.112785    0.871739    0.659532
H     -1.722400   -2.262009   -0.871391
H      2.013169    5.054081   -0.821806
H     -2.115647    4.153024   -0.516721
H      2.806653   -1.153277    2.764479
H      1.725781   -2.042045    1.686507
H     -0.528094   -0.493623   -1.357502
H     -1.493256    0.321834    1.444078
H      1.587910    0.389609   -0.946805
H     -1.352351    6.416665   -0.873708
H      3.170016    1.648778   -0.383080
H     -6.533931    0.612032    0.567987
H     -4.369084   -4.382771   -1.841702
H     -6.181063   -3.635693   -1.463279
H     -0.554917   -1.549152    1.159460
