52

C      5.934724    1.536796   -0.143425
C      4.824468   -0.324498   -1.516665
C      0.157874   -1.435212    1.473558
C     -2.843886   -0.663349    1.381593
C      2.732081   -0.460350    0.467364
C     -0.872619   -1.892098   -1.522557
C      3.869558    0.496186    0.585621
C     -2.448035    2.076801    0.949912
C     -1.065758    1.531138    0.931687
C      1.456089    0.329334    0.418314
C      0.377733   -1.429651   -0.925827
C     -2.137268   -1.705333   -0.778936
C     -4.760021    2.248744    0.324237
C     -4.510370   -0.235967   -0.960871
C      4.831154    0.565797   -0.316431
C     -3.446139    1.641636    0.228587
C     -3.251553    0.509902   -0.708203
C     -0.965054    0.315413    0.044057
C      0.223525   -0.532216    0.296515
C     -2.272548   -0.447766   -0.004436
O     -4.933731    3.203685    1.111661
O     -5.150320   -0.004296   -1.973274
H      6.279557    1.902190   -1.146487
H      6.765579    1.097690    0.448616
H      5.568887    2.424774    0.430959
H      4.044778    0.020507   -2.233120
H      5.793604   -0.254362   -2.044836
H      4.692435   -1.394911   -1.242683
H     -0.719161   -2.101725    1.510748
H      1.039568   -2.140418    1.392129
H      0.253517   -0.946126    2.448354
H     -3.790839   -0.106083    1.558736
H     -3.085233   -1.726856    1.584774
H     -2.148091   -0.298904    2.183012
H      2.802995   -1.125737    1.351777
H      2.837622   -1.013646   -0.476657
H     -0.777157   -2.999123   -1.739924
H     -0.972123   -1.439212   -2.554156
H      3.876030    1.142784    1.455615
H     -2.645282    2.908128    1.619979
H     -0.434888    2.362436    0.507328
H     -0.681062    1.355965    1.944669
H      1.438904    0.998896    1.278008
H      1.515913    0.976583   -0.491816
H      1.002748   -0.832593   -1.654387
H      1.052730   -2.264648   -0.614099
H     -2.968545   -1.737305   -1.549225
H     -2.402631   -2.589930   -0.124477
H     -5.583669    1.907339   -0.255327
H     -4.909767   -0.987358   -0.296157
H     -2.752577    0.805038   -1.650680
H     -0.843747    0.731910   -1.003155
