64

C     -4.986338   -0.881648   -0.337607
C     -4.288969    0.329943   -2.308613
C     -0.576348   -2.235543    1.250574
C      2.475249    0.223358   -1.259246
C      5.248288    1.332156   -0.235382
C      5.921416    2.397873    0.303324
C      0.301798    0.721716    1.458848
C     -2.354645    2.749186    0.744030
C      4.864789    1.434897    1.923005
C     -2.612141   -0.056304    1.628410
C      4.563714    0.698821    0.780266
C     -0.455901    0.119662    0.338294
C      1.750203    0.930545    1.054201
C     -2.460917    1.591894   -0.166775
C     -2.860949    2.352633    2.074524
C     -1.888165   -1.485408   -1.410188
C     -2.542340   -0.555888   -0.777321
C     -0.496265   -1.832087   -1.090051
C      3.692220   -0.493537    0.728899
C      2.149906   -2.608932   -0.124439
C      3.506723   -2.463748   -0.642983
C     -3.899514   -0.001282   -0.873068
C      0.009711   -1.306939    0.202822
C      2.285190   -0.178114    0.193680
C     -1.932957    0.272181    0.347871
C      1.488122   -1.450981    0.254865
O      1.838220    2.147121    0.351346
O     -2.897925    3.114964    3.060572
O     -2.490801   -2.220364   -2.453179
O      0.204761   -2.526125   -1.867559
O      3.997566   -3.175964   -1.557467
O      5.655524    2.405295    1.578301
O     -3.314648    1.058520    2.211483
O      4.315991   -1.466604   -0.086773
O     -3.842740    1.257505   -0.234918
O      2.006299   -2.368383    1.320902
H     -4.681986   -1.914321   -0.110652
H     -5.464708   -0.346569    0.521429
H     -5.847832   -1.008140   -1.062424
H     -3.359303    0.572040   -2.859471
H     -4.701374   -0.611531   -2.739802
H     -5.018173    1.139148   -2.307740
H     -1.643188   -2.395068    1.184652
H     -0.119490   -3.253698    1.029999
H     -0.162400   -1.972159    2.234144
H      3.386147   -0.270675   -1.711867
H      1.651890   -0.184429   -1.919926
H      2.627532    1.306272   -1.394317
H      5.275918    1.063537   -1.282775
H      6.561917    3.102862   -0.257473
H     -0.061230    1.654213    1.877080
H      0.300489   -0.012221    2.316595
H     -1.380365    3.269408    0.756994
H     -3.063617    3.528687    0.319220
H      4.498066    1.231738    2.941763
H     -3.389093   -0.844022    1.577759
H     -1.915998   -0.376858    2.433614
H     -0.113098    0.649427   -0.596384
H      2.310568    1.004819    2.008076
H     -2.069593    1.831176   -1.176091
H      3.598864   -0.892859    1.779414
H      1.647537   -3.573309   -0.342024
H      1.049363    2.691849    0.564246
H     -2.290965   -3.219737   -2.524503
