52

C     -2.205055   -1.673387    1.711233
C     -3.521269   -2.529505    0.015020
C      5.337444    0.004814   -0.361787
C     -0.541328    5.221193    0.139414
C      2.581783    2.323473    1.341897
C     -3.410043    0.848817   -0.489877
C     -3.627928   -0.253429    0.534578
C     -0.704745   -2.261948   -0.664475
C      1.600713   -2.949592   -0.792523
C     -1.539301    2.504875   -0.204103
C      2.611104   -0.432915   -0.403551
C     -1.995759    1.229982   -0.364118
C      0.719201   -1.895183   -0.615168
C      1.246706   -0.639374   -0.420052
C     -1.653536   -1.150948   -0.573748
C      2.957415   -2.792349   -0.781457
C      3.460773   -1.507287   -0.582744
C     -0.212419    2.798317   -0.091044
C     -1.064071    0.188783   -0.416513
C      0.309735    0.472884   -0.305533
C      0.737549    1.749997   -0.140449
N     -2.719485   -1.350356    0.388728
O      3.845307   -3.840358   -0.956800
O      4.827993   -1.286657   -0.561699
O      0.260737    4.074441    0.070611
O      2.063906    2.113281   -0.005500
H     -3.043323   -1.490898    2.418027
H     -1.967382   -2.758268    1.804017
H     -1.381498   -1.021264    2.010204
H     -4.516482   -2.490627    0.499114
H     -3.029440   -3.461160    0.371899
H     -3.678782   -2.541922   -1.077187
H      6.444143   -0.042002   -0.403533
H      5.021608    0.718010   -1.172858
H      5.029013    0.449357    0.615184
H     -0.906789    5.423602    1.166130
H     -1.392652    5.139746   -0.561951
H      0.092374    6.085267   -0.179595
H      2.466601    1.401542    1.915433
H      2.055595    3.188011    1.764133
H      3.659697    2.553783    1.254023
H     -4.103921    1.672937   -0.218037
H     -3.620421    0.510367   -1.523224
H     -4.675383   -0.615607    0.410944
H     -3.500830    0.228645    1.535848
H     -0.820387   -2.864561   -1.617129
H     -0.835221   -3.051257    0.129418
H      1.234109   -3.970241   -0.951576
H     -2.248559    3.316400   -0.164891
H      3.083960    0.502080   -0.307278
H     -2.201157   -1.097830   -1.568381
H      3.469699   -4.751678   -1.097531
