27

C     -3.713387    0.462929    1.197643
C     -4.060921   -0.309005   -1.012443
C     -2.351489    0.203742    1.014726
C     -2.712599   -0.552198   -1.157425
C     -4.559287    0.194209    0.154146
C     -1.811913   -0.295068   -0.124416
C      2.021000   -0.742104    0.124009
C      2.787608    0.564390    0.119978
C      0.614579   -0.394918    0.527170
C      4.163507    0.387554   -0.394019
Cl    -6.291246    0.502658    0.329845
N     -0.457953   -0.577185   -0.371848
O      1.984573   -1.218529   -1.175628
O      2.105761    1.435822   -0.719186
O      0.393860    0.066047    1.687466
O      4.531986    0.985106   -1.431966
O      5.097771   -0.428091    0.227985
H     -4.087554    0.861703    2.129949
H     -4.774593   -0.504738   -1.809411
H     -1.737981    0.426288    1.845919
H     -2.376895   -0.949635   -2.100615
H      2.447438   -1.483518    0.831658
H      2.878667    0.949669    1.159327
H     -0.162053   -0.974698   -1.332360
H      1.919318   -0.446346   -1.787237
H      2.087686    2.339278   -0.317359
H      6.064119   -0.503362   -0.061854
