39

C      1.901449   -2.303016    0.379391
C     -1.713804   -1.398160   -1.190344
C     -1.998384   -1.667403    1.210688
C     -0.619679    1.710801    2.018235
C      2.972943   -0.725910   -1.261939
C      2.849447    0.766654   -0.999360
C     -2.516916    0.513556    0.082157
C     -1.538683    1.626104   -0.292030
C      0.916094    1.893697    0.131540
C      1.864695   -1.260490   -0.422994
C      1.371745    0.994532   -0.993436
C      0.723643   -0.336971   -0.713346
C     -0.216598   -0.177574    0.416590
C     -1.592257   -0.683033    0.134121
C     -0.376136    1.316839    0.599033
H      1.076329   -2.655472    0.968345
H      2.827101   -2.859471    0.463989
H     -2.746564   -1.856585   -1.193980
H     -1.731703   -0.686364   -2.054743
H     -1.018055   -2.227032   -1.315772
H     -1.433081   -2.612705    1.003670
H     -3.092964   -1.875854    1.174854
H     -1.692168   -1.340885    2.221627
H     -0.275554    2.763301    2.152647
H     -1.700275    1.718351    2.293273
H     -0.095476    1.106818    2.757972
H      3.958267   -1.123833   -0.988230
H      2.694750   -0.935540   -2.317406
H      3.375124    1.334416   -1.798119
H      3.292695    0.946024    0.001315
H     -2.956805    0.678969    1.065155
H     -3.292526    0.385687   -0.714128
H     -2.016565    2.586984   -0.076992
H     -1.252262    1.497190   -1.352091
H      0.889103    2.953156   -0.133141
H      1.658232    1.761098    0.968563
H      1.065347    1.425928   -1.954856
H      0.270899   -0.684127   -1.662168
H      0.168594   -0.569679    1.391911
