52

C     -2.730850   -0.869454   -1.601928
C     -3.502881   -2.488061   -0.004386
C      5.248166    0.009725   -1.075842
C     -0.310279    4.646746    2.246036
C      2.326800    2.782941   -0.816855
C     -3.115751    0.444302    1.647183
C     -3.674325   -0.193703    0.423117
C     -0.728094   -2.324527   -0.281687
C      1.468952   -2.949430   -1.058680
C     -1.261827    2.137192    1.638575
C      2.565430   -0.481507   -0.530659
C     -1.717642    0.880031    1.326880
C      0.666120   -1.951486   -0.517733
C      1.250374   -0.718749   -0.264534
C     -1.537510   -1.337821    0.438650
C      2.793256   -2.706908   -1.327615
C      3.350981   -1.480118   -1.068553
C      0.029451    2.440959    1.303825
C     -0.919184   -0.052188    0.704247
C      0.398488    0.293148    0.379160
C      0.880917    1.519781    0.664015
N     -2.854745   -1.181065   -0.194478
O      3.579433   -3.714010   -1.868347
O      4.713326   -1.268614   -1.357940
O      0.512627    3.695595    1.604938
O      2.133029    1.981895    0.387998
H     -3.496805   -0.144650   -1.952116
H     -1.745851   -0.434775   -1.854980
H     -2.933771   -1.817288   -2.176399
H     -3.648556   -2.568622    1.111733
H     -2.821226   -3.312440   -0.284132
H     -4.489051   -2.534736   -0.462948
H      6.283495    0.117434   -1.400413
H      5.226005    0.116825    0.044734
H      4.634157    0.812507   -1.558972
H     -0.564816    4.306384    3.272872
H      0.283691    5.582715    2.348254
H     -1.251586    4.842572    1.683786
H      1.847814    3.762055   -0.707545
H      1.951904    2.182709   -1.669337
H      3.425335    2.877179   -0.922465
H     -3.038431   -0.305828    2.479406
H     -3.751419    1.275336    1.943475
H     -4.685149   -0.612831    0.704081
H     -3.932091    0.642221   -0.292562
H     -1.149463   -2.618917   -1.288022
H     -0.699167   -3.313874    0.266017
H      1.062604   -3.944592   -1.280062
H     -1.889311    2.863774    2.128342
H      3.065661    0.416822   -0.316467
H     -1.800421   -1.770519    1.453665
H      4.552188   -3.534136   -2.065332
