56

C      4.923527    1.402917   -0.886034
C     -3.670059    2.015745    0.222971
C     -3.977547   -0.319135    0.806981
C     -1.275528   -1.868086    0.104901
C      4.448508   -0.283242    1.148769
C      0.949022   -1.125609    2.020495
C      3.681429    1.189297   -0.588760
C     -2.196678    0.555783   -2.307134
C     -1.359544    0.735066    1.666086
C     -3.437219    0.336077   -1.511325
C     -1.205823   -0.525594   -1.921344
C      0.083790    1.123128    1.741222
C      1.466366   -1.039090   -1.081631
C     -1.707932    0.593840    0.197239
C      0.544627   -0.159538   -0.273727
C      2.832333   -1.137883   -0.442568
C     -3.167565    0.585021   -0.043864
C     -0.913133   -0.516026   -0.430949
C      3.210251    0.090759    0.327272
C      1.002170    0.054952    1.122419
O      3.793311   -1.330094   -1.443964
O      2.250870    0.625190    1.113300
H      5.203467    2.204369   -1.547909
H      5.702121    0.779439   -0.474958
H     -3.822623    2.059524    1.323408
H     -4.624817    2.202875   -0.312065
H     -2.902042    2.764365   -0.043495
H     -4.909650    0.185515    1.203395
H     -4.395488   -1.136706    0.148294
H     -3.480689   -0.737416    1.683837
H     -0.586688   -2.632651   -0.240559
H     -1.446092   -1.903827    1.185672
H     -2.273328   -2.128501   -0.361411
H      5.134210   -0.902085    0.528652
H      5.019814    0.618576    1.438840
H      4.183683   -0.916085    2.021069
H      0.916644   -2.101906    1.549096
H      1.882369   -1.118072    2.658997
H      0.122752   -1.056521    2.789049
H      2.902382    1.817505   -1.004927
H     -1.783337    1.566944   -2.258318
H     -2.442662    0.368096   -3.383312
H     -1.948150    1.583447    2.049077
H     -1.620792   -0.143133    2.264429
H     -4.225924    1.028890   -1.914779
H     -3.793000   -0.682734   -1.683421
H     -1.681658   -1.492141   -2.246859
H     -0.327706   -0.393704   -2.548992
H      0.372108    1.202497    2.829355
H      0.209289    2.098172    1.226396
H      1.099466   -2.070797   -1.227999
H      1.642561   -0.634122   -2.114805
H     -1.311769    1.545619   -0.273609
H      0.624250    0.859824   -0.769409
H      2.893873   -2.043108    0.196813
H      3.392251   -1.795627   -2.229905
