41

C      3.235978   -0.970777   -1.384935
C      2.713019   -2.483793    0.440610
C     -0.424467    3.402369    1.161848
C     -2.460221   -1.828042   -0.786716
C     -3.292041    0.427741   -0.075096
C     -2.647755    1.628223    0.586165
C      1.012125    1.603825    0.263924
C      0.073875   -0.914326    0.780053
C      2.449725   -1.108070   -0.071753
C     -0.237772    2.123181    0.866785
C     -2.370239   -0.730883    0.244581
C     -1.321385    1.150587    1.146752
C      1.036825   -0.829856   -0.398381
C     -1.046276   -0.051046    0.266368
C      0.745193    0.592919   -0.826740
O      1.342532    0.926377   -2.026259
O     -0.660926    0.466948   -0.975309
H      2.730132   -1.487940   -2.212722
H      3.481328    0.087864   -1.594492
H      4.231442   -1.483356   -1.264827
H      2.006273   -2.822726    1.210098
H      3.750860   -2.513633    0.837256
H      2.711312   -3.180236   -0.441318
H      0.335974    4.152472    0.976955
H     -1.353303    3.741823    1.601899
H     -1.754328   -1.672569   -1.601902
H     -2.246317   -2.786146   -0.250214
H     -3.524057   -1.873029   -1.137155
H     -3.299965    0.525488   -1.181412
H     -4.321089    0.254872    0.293604
H     -2.452237    2.386737   -0.227122
H     -3.273782    2.065296    1.376105
H      1.488830    2.485536   -0.254435
H      1.743265    1.276564    1.012635
H     -0.223569   -1.939078    1.012869
H      0.526359   -0.372534    1.648338
H      2.881339   -0.335511    0.593334
H     -2.585538   -1.119699    1.238235
H     -1.395705    0.879296    2.216668
H      0.607384   -1.495155   -1.176148
H      1.787204    1.820287   -1.888147
