28

C      2.384724   -0.745546    0.941978
C      1.047996   -1.436962    0.592724
C     -1.340853    1.042683    1.231031
C     -0.673806    2.082810    0.672672
C      2.348000    0.581115    0.146615
C     -2.585017   -1.036767    0.392330
C     -0.714439    1.009214   -1.480460
C     -1.696775   -0.083776    0.371326
C      0.217692    1.713325   -0.463366
C      0.595947   -0.582914   -0.518119
C     -2.460961   -1.883021   -0.793696
C     -0.814710   -0.345402   -0.809706
N      1.005581    0.699368   -0.025823
O     -3.160396   -2.892093   -1.070712
O     -1.423929   -1.356620   -1.551255
H      3.237124   -1.354906    0.671691
H      2.311463   -0.450116    1.996057
H      1.301704   -2.443271    0.208408
H      0.374844   -1.474970    1.439321
H     -1.615874    1.049385    2.268219
H     -0.815671    3.061141    1.059049
H      2.899456    1.366442    0.689509
H      2.875258    0.340962   -0.822792
H     -3.310986   -1.159894    1.202399
H     -0.164168    0.934617   -2.428814
H     -1.671721    1.534545   -1.540786
H      0.686950    2.596222   -0.930009
H      1.162562   -0.765572   -1.447790
