64

C      3.571373    3.054620   -0.224565
C      4.767828    1.124692   -1.067019
C      0.766903   -1.672632   -1.983657
C     -2.503472    0.913679   -0.221425
C     -5.400240    0.579815    0.189559
C     -6.180845    1.240104    1.104023
C     -0.042655   -1.301585    1.168354
C      2.922638   -0.249399    2.714074
C     -4.865331   -0.071506    2.207204
C      2.954508   -1.391904   -0.009595
C     -4.549825   -0.266193    0.878785
C      0.632170   -0.396651    0.211433
C     -1.442285   -0.734177    1.359358
C      2.546997    0.533735    1.530785
C      3.587493   -1.521700    2.367017
C      1.520440    1.268693   -1.617975
C      2.334718    0.940990   -0.666603
C      0.284070    0.576787   -1.923944
C     -3.521761   -1.178772    0.282970
C     -2.092178   -1.551552   -2.132916
C     -3.561930   -1.680276   -2.054410
C      3.611658    1.514697   -0.211054
C      0.022138   -0.644655   -1.133750
C     -2.185148   -0.517869    0.076319
C      2.093936   -0.225428    0.288041
C     -1.394078   -1.063055   -1.065451
O     -1.279798    0.519015    1.970634
O      3.929637   -2.382564    3.217017
O      1.812580    2.375698   -2.448788
O     -0.488943    0.961659   -2.765600
O     -4.322121   -1.716217   -3.069393
O     -5.827683    0.821027    2.290308
O      3.832184   -1.753018    1.056968
O     -4.134353   -1.765928   -0.805447
O      3.740391    1.185557    1.124548
O     -1.483863   -2.541133   -1.203780
H      3.735002    3.451796   -1.233706
H      2.583947    3.329842    0.211566
H      4.403885    3.390127    0.422778
H      5.447849    1.993440   -1.303757
H      4.421952    0.741200   -2.032792
H      5.405362    0.415627   -0.496635
H      0.590853   -2.705883   -1.686895
H      0.253953   -1.592013   -2.998034
H      1.787579   -1.378636   -2.237004
H     -3.097432    1.301412    0.649100
H     -3.118971    0.902020   -1.166834
H     -1.703079    1.599137   -0.387047
H     -5.483504    0.735907   -0.876957
H     -6.959335    1.984537    0.873502
H     -0.079557   -2.364229    0.844446
H      0.379417   -1.329543    2.193264
H      3.708847    0.333937    3.289562
H      2.136619   -0.377135    3.485357
H     -4.404334   -0.564625    3.038586
H      2.388235   -2.359406   -0.159817
H      3.664024   -1.179992   -0.836013
H      0.276140    0.642627    0.517583
H     -1.942324   -1.385347    2.090549
H      1.769876    1.276997    1.798128
H     -3.445727   -2.008797    1.056959
H     -1.713663   -1.772625   -3.145558
H     -2.079074    0.663172    2.532150
H      1.418304    3.271902   -2.241955
