67

C     -3.932236    0.708441    2.754823
C     -5.282010    1.768654    1.009739
C      4.242129    2.029468   -1.270839
C      3.996757    2.363943    1.197385
C     -6.091362   -1.020804   -2.814443
C      5.810873   -3.128745    0.503139
C     -5.466356   -1.190791   -0.432196
C      4.703745   -1.576336    2.106839
C     -4.277730   -1.144647    0.441299
C      5.191054   -0.229184    1.678290
C     -4.094798    0.108525   -2.045104
C      3.668701   -2.007662   -0.144624
C      0.493630    0.820252   -2.010603
C     -3.959390    1.190717    1.334286
C      4.717154    1.634007    0.095966
C     -5.459945   -0.290578   -1.615908
C      4.491338   -2.530011    0.981109
C     -3.473334    0.103685    0.404102
C      4.700929    0.145735    0.279375
C     -3.182766    0.608261   -0.983729
C      3.378861   -0.513126    0.094583
C     -0.873083    1.203923   -1.590110
C      1.300938    0.342227   -0.838522
O     -1.120632    2.423950   -1.421155
O      0.810000    0.283930    0.326859
O     -1.848062    0.279559   -1.385777
O      2.617156   -0.055786   -0.987989
H     -4.003655    1.627864    3.408294
H     -2.965533    0.244812    3.000066
H     -4.801674    0.086537    3.023696
H     -6.151115    1.112396    1.160078
H     -5.429416    2.628991    1.729447
H     -5.300842    2.276155    0.012426
H      3.215794    2.456591   -1.257874
H      4.973066    2.785325   -1.677131
H      4.343541    1.152494   -1.940860
H      3.240510    1.669975    1.617837
H      4.725738    2.599896    1.994439
H      3.553098    3.321352    0.861254
H     -5.601402   -0.699164   -3.763492
H     -7.164334   -0.825299   -2.872790
H     -5.893408   -2.095499   -2.629994
H      6.136910   -3.836274    1.293516
H      5.591301   -3.712592   -0.416909
H      6.566497   -2.368951    0.289412
H     -6.426424   -1.041939    0.146711
H     -5.568379   -2.251146   -0.815571
H      5.527819   -2.019260    2.742507
H      3.816663   -1.520267    2.769346
H     -3.590503   -2.015210    0.221072
H     -4.598769   -1.309478    1.492750
H      4.757402    0.520545    2.369601
H      6.296354   -0.125710    1.755428
H     -4.145344    0.892505   -2.835890
H     -3.604720   -0.782072   -2.534406
H      2.744543   -2.554847   -0.358744
H      4.317013   -2.007758   -1.069945
H      0.467558   -0.053814   -2.725551
H      1.055098    1.613243   -2.513238
H     -3.205634    2.015713    1.268473
H      5.805934    1.927584    0.167383
H     -6.113123    0.618030   -1.501724
H      3.916458   -3.408490    1.403009
H     -2.459488   -0.172029    0.840091
H      5.424494   -0.319942   -0.419206
H     -3.250926    1.730358   -0.909846
H      2.737340   -0.488235    1.009539
