51

C     -3.337416    0.983560   -3.366313
C     -2.035865   -1.352008    1.752998
C      4.128819    1.613516    1.498247
C      4.860946    0.921028    0.446899
C      3.032869    2.257012    1.682609
C      4.770085   -0.321842    0.020088
C     -2.792667    1.655262   -0.941669
C     -2.412699    0.701647    0.173706
C     -1.223278    0.439345   -2.229456
C      0.407980   -1.329908    1.544889
C     -0.343330    1.465576    1.190114
C     -1.912365   -2.448167   -1.009352
C     -2.415763    1.000137   -2.211155
C      1.342843   -1.938881    0.544478
C     -0.301862    0.461465   -1.072267
C      1.824207    2.722515    1.011907
C      3.857093   -1.341167    0.544219
C      0.552713   -1.712395   -0.768639
C     -0.858607   -0.991571    0.888904
C     -0.946906    0.394955    0.274806
C     -0.881686   -1.965655   -0.289098
O      1.750582    4.032545    0.767176
O      4.515067   -2.279516    1.200122
O      0.711685    2.106098    0.562347
O     -1.199559   -3.294493   -0.019671
O      2.556443   -1.429567    0.445937
O      0.648856   -0.508294   -1.300855
H     -3.057313    0.179461   -4.112917
H     -3.260043    1.942271   -3.950481
H     -4.402512    0.839377   -3.087202
H     -2.518572   -2.298050    1.428228
H     -1.620376   -1.606394    2.778769
H     -2.714225   -0.532681    1.915430
H      4.892825    1.560151    2.415596
H      5.691546    1.485946   -0.114393
H      2.836255    2.698584    2.778457
H      5.446242   -0.639461   -0.814036
H     -3.905489    1.691911   -0.924713
H     -2.425239    2.675614   -0.814113
H     -2.791034    1.224370    1.104715
H     -2.973837   -0.219185   -0.018924
H     -0.904363   -0.049546   -3.141008
H      0.892826   -0.560082    2.171380
H      0.172877   -2.147719    2.305031
H     -0.108541    1.095254    2.198508
H     -1.143676    2.245812    1.408084
H     -2.963846   -2.464476   -0.732921
H     -1.769204   -2.823418   -2.065242
H      1.228624   -3.082495    0.642068
H      0.281891    1.429133   -1.196870
H      0.817000   -2.485573   -1.514418
