36

C      3.193336    0.044967    2.140896
C     -3.945247   -1.515363   -0.157753
C     -4.470773    0.756258    0.465881
C     -1.269124   -1.298993   -1.136768
C      2.743013    1.710755   -1.886392
C      3.386783   -0.791746    0.915095
C      3.572857    0.042733   -0.322894
C     -2.168286    0.101893    0.669137
C     -3.505060   -0.432120    0.751048
C     -1.177429   -0.231811   -0.117802
C      2.410445    0.935866   -0.615812
C      0.093242    0.526545    0.047074
O      0.229444    1.442189    0.890537
O      1.193364    0.234034   -0.749515
H      3.645772    1.058273    2.011292
H      3.689209   -0.444906    2.990222
H      2.114359    0.143882    2.414669
H     -3.750719   -1.400573   -1.214142
H     -3.643467   -2.516762    0.260146
H     -5.098483   -1.617493   -0.116099
H     -4.640369    0.799818   -0.632732
H     -3.988636    1.708608    0.754272
H     -5.394795    0.649835    1.030184
H     -1.619531   -2.265973   -0.791067
H     -1.677560   -0.954684   -2.115814
H     -0.173609   -1.507093   -1.407569
H      1.958048    2.460032   -2.042551
H      2.873243    1.022057   -2.748145
H      3.725725    2.200054   -1.704619
H      2.526268   -1.480943    0.779833
H      4.318942   -1.389672    1.042643
H      3.820946   -0.614363   -1.175112
H      4.458765    0.685964   -0.153268
H     -1.964126    0.933251    1.403028
H     -3.761433   -0.680124    1.833936
H      2.294886    1.685600    0.180105
