27

C     -4.800021   -0.734024    0.119000
C      1.803092    1.533714    0.272230
C      1.786766   -0.851926    0.568010
C     -0.293227    0.441640    0.999672
C      1.133523    0.363086    0.604873
C      3.124511    1.480619   -0.095815
C      3.120008   -0.920414    0.198491
C     -1.171333    0.305960   -0.198873
C      3.755970    0.248010   -0.124356
C     -2.601997    0.383580    0.187989
I      4.171622    3.237730   -0.607038
I      4.097853   -2.784979    0.148904
N     -0.893385   -0.901083   -0.913246
O      5.080987    0.224768   -0.497060
O     -3.085151    1.348817    0.822245
O     -3.435779   -0.642989   -0.161374
H     -5.197556   -1.621199   -0.430111
H     -5.056173   -0.815785    1.174144
H     -5.300447    0.148161   -0.334624
H      1.321444    2.504083    0.290307
H      1.261070   -1.765345    0.828482
H     -0.531004    1.413110    1.497995
H     -0.546146   -0.343376    1.754432
H     -0.937843    1.159802   -0.899335
H     -0.878185   -1.716989   -0.258371
H     -1.530936   -1.045417   -1.718132
H      5.602341   -0.649555   -0.538129
