42

C      1.821427   -3.239527   -0.820244
C      2.569111   -1.923811   -0.751226
C      3.726307    2.880333    0.272277
C      2.671000    2.580040    1.109897
C      4.112157    1.946850   -0.665224
C     -3.359411    1.316457   -0.796571
C     -4.380559    0.897980    0.211507
C      2.040320    1.366711    0.987120
C      3.468407    0.728385   -0.778444
C     -2.426355    0.248188   -1.271660
C     -3.944211   -0.310474    1.009034
C     -0.026349   -1.141806    1.309058
C      2.411665    0.407096    0.048454
C     -1.864540   -0.621573   -0.175917
C     -0.404191   -0.345349    0.107663
C      1.690596   -0.878949   -0.082440
N     -2.509587   -0.219804    1.098534
O      1.345292   -1.286929    1.167371
O      0.493300   -0.715044   -0.844062
H      0.845704   -3.193265   -0.321674
H      1.649466   -3.549456   -1.876479
H      2.384249   -4.081651   -0.341819
H      2.877257   -1.647246   -1.760629
H      3.433832   -2.090357   -0.047173
H      4.205380    3.828412    0.401700
H      2.331129    3.279840    1.859751
H      4.946880    2.215953   -1.283812
H     -3.931996    1.660899   -1.692448
H     -2.766334    2.209383   -0.480175
H     -4.456808    1.734509    0.971121
H     -5.387733    0.727203   -0.171315
H      1.239678    1.198252    1.712447
H      3.862365    0.055285   -1.532832
H     -2.953577   -0.351278   -2.035353
H     -1.593408    0.791641   -1.812312
H     -4.361327   -0.286976    2.030981
H     -4.172897   -1.257691    0.483131
H     -0.544769   -2.131930    1.274893
H     -0.304906   -0.682729    2.275736
H     -2.064177   -1.675097   -0.301282
H     -0.389140    0.769362    0.293286
H     -2.283245    0.788161    1.219131
