45

C     -3.066585    2.253862   -1.203908
C      5.381811    1.952005    1.513049
C      3.979968   -1.618923   -1.098860
C     -2.936102   -2.954305    0.107433
C      1.366013    2.178878    0.549296
C     -1.822551   -3.726256   -0.106414
C      2.697794    2.088348    0.865179
C     -4.140202   -0.874231    0.406014
C     -4.196207    0.460770   -0.222620
C     -0.753332    1.476573   -0.169790
C     -2.864554   -1.576973    0.143489
C      0.617638    1.095141    0.090693
C     -1.866360    0.573372    0.029746
C     -0.618992   -3.088786   -0.286099
C      3.372536    0.892910    0.740416
C     -1.645646   -0.895658   -0.038061
C      1.309259   -0.094570   -0.028210
C     -0.551271   -1.698258   -0.249185
C      2.646883   -0.195835    0.286427
N     -2.986108    0.831298   -0.902695
O      0.541645   -3.836290   -0.506698
O      4.724045    0.786409    1.057275
O      3.357675   -1.393522    0.170269
O      0.796484   -1.318224   -0.461346
H     -2.497500    2.526612   -2.110918
H     -4.147352    2.440318   -1.469627
H     -2.836004    2.887327   -0.327455
H      5.234794    2.725878    0.706786
H      6.443842    1.794782    1.719314
H      4.857144    2.355230    2.408303
H      3.253409   -1.977945   -1.847175
H      4.818653   -2.340212   -1.009443
H      4.411029   -0.682010   -1.493599
H     -3.874815   -3.487573    0.246386
H      0.890449    3.157439    0.670922
H     -1.877817   -4.825727   -0.135293
H      3.273889    2.950883    1.225211
H     -4.290009   -0.837522    1.513812
H     -4.992263   -1.478088   -0.045336
H     -5.092039    0.570661   -0.899894
H     -4.294507    1.216826    0.621945
H     -0.948131    2.444821    0.390219
H     -0.784831    1.830989   -1.248092
H     -2.308467    0.767715    1.035390
H      1.416682   -3.358136   -0.636854
