42

C     -1.352791   -3.177539   -0.115192
C     -2.317275   -2.022420   -0.348913
C     -4.065514    2.709028   -0.243133
C     -4.116831    1.693210   -1.176031
C     -3.196072    2.560580    0.827632
C      3.709339    0.249133   -1.319843
C      4.484657    0.571467   -0.074527
C     -3.351798    0.572813   -1.071238
C     -2.422436    1.436366    0.941150
C      2.241286    0.160487   -1.051172
C      3.521846    1.151493    0.955543
C     -0.034924   -0.910720    1.740521
C     -2.495436    0.431607   -0.010243
C      1.890141   -0.466084    0.263850
C      0.423628   -0.119728    0.532662
C     -1.623806   -0.759339    0.176886
N      2.645062    0.088903    1.358543
O     -1.414727   -0.970746    1.522517
O     -0.406375   -0.611031   -0.456801
H     -0.365358   -2.864327   -0.490123
H     -1.358031   -3.479323    0.950089
H     -1.741575   -4.025828   -0.743484
H     -3.273531   -2.187325    0.171395
H     -2.482068   -1.960460   -1.446966
H     -4.657741    3.612916   -0.302338
H     -4.804314    1.799319   -2.022825
H     -3.146805    3.343994    1.552255
H      4.077319   -0.683680   -1.794378
H      3.855917    1.123847   -2.020791
H      5.275839    1.324036   -0.274343
H      4.923711   -0.339244    0.353522
H     -3.426485   -0.196004   -1.824294
H     -1.763815    1.379098    1.796102
H      1.737974    1.165695   -1.103510
H      1.790235   -0.445802   -1.853584
H      4.115770    1.446081    1.860829
H      3.006125    2.050353    0.581889
H      0.241634   -0.463640    2.697384
H      0.346588   -1.936126    1.639868
H      1.983278   -1.565381    0.206814
H      0.336494    0.956983    0.701886
H      3.210866   -0.642665    1.814784
