45

C     -2.712195   -2.880699    0.077080
C     -0.024251    4.798998   -1.031079
C      5.731361    0.395523    0.673211
C     -3.162463    2.003955   -0.382021
C     -2.133406    2.916152   -0.593657
C     -3.922702   -0.283393    0.235153
C     -3.482855   -1.107853    1.416749
C     -0.325911   -1.722101   -0.434450
C      1.945481   -2.442904   -0.192724
C      2.925242    0.093354    0.237844
C     -2.838055    0.729505    0.001855
C      1.108455   -1.338501   -0.185700
C     -1.213848   -1.081985    0.610844
C      3.294387   -2.274957    0.019162
C     -0.815166    2.552240   -0.422805
C      1.581019   -0.059837    0.028318
C      3.779603   -0.989444    0.235773
C     -1.539906    0.314301    0.186750
C     -0.539299    1.260639   -0.036451
N     -2.315275   -1.851895    1.016128
O      4.162727   -3.376236    0.016966
O      0.190586    3.480146   -0.640145
O      5.139700   -0.849391    0.446061
O      0.864479    1.150747    0.064709
H     -2.680818   -2.498012   -0.962960
H     -2.135126   -3.819792    0.198790
H     -3.774585   -3.124202    0.282915
H     -0.617963    4.859126   -1.971977
H     -0.420646    5.452459   -0.238621
H      0.982331    5.229300   -1.306654
H      6.711913    0.240147    1.198950
H      5.116336    1.038020    1.319517
H      5.864995    0.913119   -0.304333
H     -4.204427    2.253426   -0.506134
H     -2.416883    3.903202   -0.892503
H     -4.886812    0.208724    0.453727
H     -3.995539   -0.969736   -0.644097
H     -3.355624   -0.531304    2.331860
H     -4.294665   -1.861171    1.599092
H     -0.385728   -2.821505   -0.415082
H     -0.645447   -1.400702   -1.448227
H      1.553401   -3.438105   -0.362777
H      3.287996    1.097653    0.404738
H     -0.545507   -0.960550    1.516821
H      5.145091   -3.206459    0.176704
