45

C     -0.471868    4.551872    0.834853
C      5.663816   -1.919454   -0.302937
C      2.986263    1.873986   -0.996027
C     -3.413214    1.816801   -0.317128
C      1.585289   -2.733736    0.356022
C     -2.461632    2.711319    0.056732
C      2.921640   -2.454704    0.140450
C     -4.277803   -0.384656   -0.822601
C     -3.985472   -1.846914   -0.835732
C     -0.696506   -2.106030    0.755729
C     -3.130041    0.450214   -0.396024
C      0.687447   -1.694882    0.535063
C     -1.687458   -1.522342   -0.216397
C     -1.204313    2.254628    0.359797
C      3.417624   -1.169369    0.093406
C     -1.867290   -0.053198   -0.096645
C      1.195803   -0.414686    0.485778
C     -0.924638    0.908825    0.282319
C      2.524030   -0.136938    0.271543
N     -2.946554   -2.216535    0.097772
O     -0.233070    3.177348    0.742441
O      4.737860   -0.864882   -0.118752
O      2.966631    1.179649    0.234292
O      0.427826    0.752018    0.646603
H     -1.391297    4.796273    1.408535
H      0.394476    5.007399    1.392377
H     -0.521692    5.069075   -0.139295
H      6.677108   -1.493831   -0.390317
H      5.550409   -2.626381    0.546693
H      5.444638   -2.456971   -1.268442
H      2.237687    2.710913   -0.991608
H      2.798623    1.187988   -1.854791
H      4.007493    2.330322   -1.075862
H     -4.400642    2.216818   -0.550384
H      1.226433   -3.741267    0.387897
H     -2.653050    3.773565    0.126249
H      3.643918   -3.261744   -0.002778
H     -5.137423   -0.122383   -0.167097
H     -4.577442   -0.070078   -1.864570
H     -3.734999   -2.247713   -1.840470
H     -4.903443   -2.381767   -0.515140
H     -0.770780   -3.192836    0.693534
H     -1.071311   -1.828645    1.783275
H     -1.429950   -1.757288   -1.267647
H     -3.203124   -2.069785    1.078189
