39

C      3.315227   -0.441157    0.949406
C      2.777084    1.868727    0.392681
C     -1.482364   -2.766048    0.629460
C     -1.360782    2.129914    0.695572
C      0.516166   -2.109512   -0.420277
C     -3.140272    0.938834   -0.505945
C      1.564029   -1.397685   -1.236938
C     -2.673125   -0.356723    0.174099
C      0.445824    0.746513   -0.700626
C      2.806829    0.479842   -0.148246
C     -0.755747   -1.824754   -0.262943
C     -1.820941    1.659022   -0.666663
C      1.530994    0.012136   -0.688673
C     -1.572365   -0.755206   -0.815582
C     -0.918431    0.520521   -1.170875
H      3.855991   -1.312103    0.519057
H      4.094199    0.124209    1.535839
H      2.535339   -0.721766    1.668316
H      2.124986    1.953678    1.291465
H      3.809242    2.108811    0.754971
H      2.547620    2.636402   -0.374840
H     -0.854176   -3.561779    1.032859
H     -1.953187   -2.240095    1.482507
H     -2.257014   -3.268338   -0.019001
H     -2.273524    2.267407    1.325827
H     -0.825150    3.083813    0.651490
H     -0.743672    1.347241    1.197814
H      0.883847   -2.978179    0.105096
H     -3.862408    1.470910    0.116979
H     -3.540271    0.655939   -1.514255
H      1.197854   -1.341855   -2.272774
H      2.538383   -1.865948   -1.107579
H     -2.248971   -0.054626    1.147608
H     -3.466959   -1.100448    0.232004
H      0.632727    1.737746   -0.256383
H      3.583903    0.446858   -0.958060
H     -1.862391    2.492326   -1.384690
H     -2.146578   -1.205259   -1.677921
H     -1.001916    0.620637   -2.298351
