55

C     -2.320823   -1.921427    0.416445
C     -2.476725   -3.251089    0.183847
C     -1.972659   -1.611301   -1.891277
C     -2.733916    5.001646    1.268852
C     -3.932545    2.914823    1.250992
C      4.952738    0.629622    0.638892
C     -2.063420   -1.073972   -0.632518
C     -3.874107    4.258466    1.504603
C     -2.386076   -3.802696   -1.089184
C     -2.129355   -2.972395   -2.151184
C     -1.649762    4.327083    0.763579
C     -2.849608    2.232420    0.744534
C      3.521435    0.215379    0.907027
C     -1.689844    2.978769    0.502787
C      3.478394   -1.211340    1.372880
C     -0.531304    2.278568   -0.032180
C      3.028719   -2.170805    0.302859
C      1.838433   -1.693328   -0.495439
C     -1.891790    0.355684   -0.412460
C     -0.546327    0.772459    0.118852
C      1.514573   -0.300317   -0.030254
O      5.526715   -0.031681   -0.420317
O     -4.979140    4.926488    2.015639
O     -2.556331   -5.180864   -1.264625
O     -2.025481   -3.457708   -3.453969
O     -0.461563    4.997549    0.496739
O      2.724901   -1.321381    2.541574
O      0.406631    2.893525   -0.577611
O      4.086472   -2.514299   -0.555172
O      0.760203   -2.568828   -0.363709
O     -2.893095    0.871807    0.482470
O      2.692855    0.451692   -0.180355
O      0.459364    0.304375   -0.699773
H     -2.400703   -1.527114    1.440549
H     -2.683436   -3.956583    0.999483
H     -1.770821   -0.985673   -2.755113
H     -2.687051    6.066496    1.469665
H     -4.843115    2.350332    1.445180
H      5.530174    0.319476    1.559236
H      5.073645    1.731600    0.590172
H      3.158028    0.853987    1.737559
H      4.510814   -1.508913    1.652568
H      2.696394   -3.093145    0.844821
H      2.160542   -1.636466   -1.567570
H     -2.058118    0.939027   -1.357194
H     -0.388580    0.565444    1.196339
H      1.270275   -0.285158    1.042712
H      6.201330    0.521223   -0.900230
H     -4.979352    5.917071    2.217436
H     -2.503096   -5.638284   -2.153599
H     -2.126084   -4.420885   -3.715652
H     -0.337738    5.977418    0.653881
H      2.353815   -2.233373    2.668900
H      3.910687   -2.025466   -1.407167
H      0.884829   -3.257937   -1.085738
