39

C      2.999239    0.056413    1.854238
C      2.889379   -1.818292    0.258667
C     -2.078750    2.552080    0.819708
C     -1.040668   -2.272997   -0.054097
C      0.223550    2.214281    0.439034
C     -2.839123   -1.015133   -1.164530
C      1.522770    1.732691   -0.062304
C     -2.673245    0.170780   -0.233699
C      0.680412   -0.492547   -0.730179
C      2.838963   -0.316418    0.395040
C     -0.992605    1.842177    0.096309
C     -1.430640   -1.492566   -1.292224
C      1.592150    0.256437   -0.182165
C     -1.447539    0.867635   -0.865325
C     -0.595596   -0.196168   -1.355951
H      2.026633    0.449270    2.235701
H      3.752847    0.869072    1.901911
H      3.355153   -0.819728    2.414170
H      3.865040   -2.201090    0.641478
H      2.873500   -2.084796   -0.817799
H      2.037610   -2.314684    0.787171
H     -2.701886    1.852046    1.425113
H     -2.805369    3.027876    0.098402
H     -1.693840    3.391837    1.434162
H     -0.357172   -3.082048   -0.341747
H     -1.984574   -2.779116    0.292260
H     -0.698711   -1.639389    0.768099
H      0.314071    2.983094    1.192791
H     -3.248708   -0.621240   -2.109217
H     -3.514199   -1.774592   -0.733570
H      2.301733    2.050597    0.650946
H      1.767920    2.229263   -1.031113
H     -3.539783    0.828740   -0.200846
H     -2.362058   -0.240498    0.748515
H      0.940996   -1.554508   -0.711951
H      3.706535    0.071746   -0.203160
H     -1.265191   -2.127900   -2.163208
H     -1.926823    1.452136   -1.715604
H     -0.492020   -0.054463   -2.485024
