40

C      1.522305   -1.186468   -1.503645
C     -1.582930   -1.211844   -2.092814
C     -3.214719   -0.573992   -0.473666
C      0.331193   -0.906137    1.535313
C      3.024494    0.379954    1.572591
C      2.701544   -0.647951    0.525562
C      1.993153    1.453594    1.613183
C      1.576145   -0.182911   -0.425089
C      0.802535    1.364850    1.084231
C     -0.180342    2.445112    1.140970
C     -1.048936    2.765068   -0.022453
C     -1.278093    1.554779   -0.901326
C     -0.941541    0.320595   -0.168488
C     -1.735847   -0.853628   -0.686899
C      0.385431    0.102008    0.386352
O     -0.254989    3.085293    2.206168
O     -1.500584   -2.013405    0.070861
O     -0.509071    2.576434   -1.295515
H      1.012663   -2.102391   -1.178666
H      2.588986   -1.534820   -1.684638
H      1.226929   -0.804385   -2.501432
H     -1.077175   -2.165890   -2.319884
H     -1.116187   -0.341620   -2.637735
H     -2.580161   -1.312580   -2.561606
H     -3.445689   -0.220811    0.527790
H     -3.642915    0.039565   -1.293252
H     -3.729932   -1.575333   -0.580616
H      0.600734   -1.930147    1.234310
H      0.966819   -0.636653    2.390355
H     -0.689773   -0.956990    1.970897
H      3.981468    0.937089    1.320758
H      3.236438   -0.062370    2.559094
H      3.607195   -0.697993   -0.151619
H      2.567047   -1.665787    0.884654
H      2.227319    2.394860    2.126909
H      2.043028    0.746627   -0.880021
H     -1.750046    3.570313    0.083816
H     -2.314019    1.585870   -1.344031
H     -1.570803    0.511741    0.799162
H     -2.231676   -2.249646    0.670419
