40

C     -1.455155    1.685007   -1.371301
C      2.077046    1.031661    1.208573
C      3.089457    0.674249   -0.951145
C     -1.241313   -1.069025   -1.352756
C     -3.098788   -0.294663    0.881368
C     -2.444086    1.061371    0.741355
C     -2.047237   -1.128588    1.518837
C     -1.144977    1.026930   -0.025279
C     -0.839046   -1.128174    0.997430
C      0.148668   -1.965488    1.668632
C      1.352543   -2.351294    0.866038
C      1.630872   -1.598497   -0.275786
C      0.905281   -0.318204   -0.589421
C      1.717741    0.894532   -0.233879
C     -0.541325   -0.329345   -0.209334
O     -0.034909   -2.316807    2.838305
O      1.275740    2.073229   -0.834504
O      2.430307   -1.526891    0.999308
H     -1.304538    2.775491   -1.365948
H     -2.550819    1.557975   -1.613866
H     -0.920711    1.250317   -2.210910
H      3.101787    0.641874    1.454285
H      2.177869    2.136517    1.455812
H      1.390964    0.604482    1.931800
H      2.962079    0.813104   -2.044500
H      3.800094    1.457524   -0.619392
H      3.445123   -0.340773   -0.804304
H     -0.511968   -1.473268   -2.098505
H     -2.006367   -0.431648   -1.832575
H     -1.723005   -1.960325   -0.923901
H     -3.540050   -0.697519   -0.020658
H     -3.959669   -0.123090    1.593381
H     -2.236107    1.374341    1.811298
H     -3.155383    1.747650    0.276364
H     -2.341334   -1.698172    2.390497
H     -0.498321    1.736220    0.519385
H      1.474551   -3.464180    0.840257
H      2.259693   -2.087065   -1.081698
H      0.919344   -0.258605   -1.725805
H      1.435946    2.019147   -1.807457
