28

C     -1.189364   -1.584286    0.959552
C     -0.737253    1.066427    1.495004
C     -1.492843    1.507217   -0.774748
C      1.613350   -1.200826    0.172644
C      1.934620    0.289824    0.354194
C      0.866755    0.027244   -1.668262
C     -0.778137   -0.765848   -0.228110
C      0.510091   -1.231596   -0.857337
C      0.857622    0.968266   -0.447391
C     -0.527423    0.675237    0.081375
H     -1.272623   -2.644627    0.601253
H     -0.539219   -1.494870    1.828673
H     -2.227745   -1.287936    1.222317
H      0.183734    1.212207    2.087920
H     -1.366157    0.353166    2.074235
H     -1.289139    2.050358    1.574061
H     -1.023757    1.840048   -1.712379
H     -2.391025    0.906672   -1.017882
H     -1.778081    2.438727   -0.224082
H      1.360852   -1.688634    1.111930
H      2.486011   -1.742809   -0.258216
H      1.994977    0.584691    1.392003
H      2.896220    0.473345   -0.181479
H      0.101711    0.280493   -2.391110
H      1.891274   -0.001096   -2.028061
H     -1.576962   -0.906095   -1.006070
H      0.449155   -2.121566   -1.452283
H      1.043356    1.996268   -0.707754
