28

C     -0.999072   -2.022576   -0.116407
C     -1.138083    0.447759   -1.452697
C     -1.754121    1.209206    0.765519
C      1.793900   -0.655476   -0.564194
C      1.639277    0.835063   -0.878691
C      1.216384    0.504382    1.367282
C     -0.430057   -0.863746    0.574765
C      1.080270   -0.894345    0.729771
C      0.609829    1.237874    0.154983
C     -0.672115    0.473996   -0.023440
H     -0.366201   -2.473909   -0.907053
H     -1.157145   -2.853044    0.634013
H     -2.010800   -1.780718   -0.489774
H     -1.273329    1.518674   -1.758192
H     -2.139650   -0.000714   -1.480426
H     -0.430769    0.006927   -2.153355
H     -2.342369    1.869896    0.101316
H     -2.469536    0.404861    1.093065
H     -1.370664    1.697801    1.658905
H      2.866280   -0.865717   -0.403784
H      1.455076   -1.284227   -1.390742
H      1.323582    1.017388   -1.902243
H      2.587475    1.371797   -0.612294
H      2.261775    0.774343    1.511904
H      0.573280    0.559545    2.241048
H     -0.821193   -0.847841    1.635803
H      1.458696   -1.681657    1.354249
H      0.509283    2.294459    0.310667
