29

C     -3.508149    1.322826   -0.833089
C      4.931428   -0.106555    0.539497
C      4.422867    0.909013   -0.279079
C      4.087319   -0.987954    1.180945
C      3.046415    1.019866   -0.439320
C      2.728316   -0.855459    1.004782
C     -1.866054   -0.253452    0.034259
C     -3.345943   -0.096786   -0.341546
C      2.188361    0.145369    0.196003
C     -4.223231   -0.379613    0.816564
C      0.245922   -0.080805   -1.072716
N      0.773642    0.214233    0.066425
O     -4.970433    0.515141    1.258524
O     -4.173087   -1.650574    1.367415
O      1.029380   -0.458089   -2.154418
O     -1.138060    0.000295   -1.152833
H     -4.537790    1.459037   -1.218100
H     -2.732931    1.510750   -1.588371
H     -3.307678    2.014969    0.030793
H      5.992985   -0.215420    0.681287
H      5.084350    1.594415   -0.777618
H      4.484778   -1.770054    1.811650
H      2.618977    1.791883   -1.063780
H      2.084348   -1.544066    1.506740
H     -1.718363   -1.277537    0.413058
H     -1.606626    0.443783    0.843539
H     -3.619232   -0.764279   -1.159842
H     -4.997163   -1.976513    1.888366
H      2.025653   -0.524422   -2.067010
