67

C     -5.889564    0.844429    1.042518
C     -3.837493   -1.773020    1.748927
C      7.562041   -0.810686    0.891832
C      1.305631   -2.723591    0.449365
C      2.195901   -2.653432   -0.519694
C     -0.047235   -3.281610    0.655888
C      3.535540   -2.088117   -0.684726
C     -1.151938   -3.362675   -0.012847
C     -2.369082    1.445102   -0.300080
C     -3.662981    1.578569    0.369619
C     -1.794039    2.739572   -0.776016
C      4.443639   -1.289725   -0.412055
C     -2.513836   -3.908350    0.161793
C      0.732804    2.235880   -1.045749
C     -0.112650    4.149273    0.130707
C      2.182041    3.871883    0.007056
C      5.083721    1.093498   -0.041891
C     -4.575868    0.642979    0.328362
C     -3.415493   -1.575669    0.290746
C     -0.331837    2.968821   -0.610624
C      2.038719    2.698912   -0.727581
C      1.129894    4.633001    0.459318
C      5.519658   -0.344203   -0.089432
C     -3.555852   -2.911031   -0.391890
C      4.218098    1.455350   -1.252446
C     -4.336927   -0.599479   -0.405699
N      3.192012    2.032769   -1.092987
O      1.298385    5.796966    1.190441
O     -3.419705   -2.762918   -1.747061
O      4.792096    1.027915   -2.472758
O     -5.562114   -1.290570   -0.570587
O      6.197559   -0.630653    1.099349
H     -6.683080    0.397078    0.381370
H     -5.885698    0.366496    2.041963
H     -6.087336    1.922992    1.211718
H     -3.829140   -0.834308    2.308257
H     -3.057785   -2.441213    2.195888
H     -4.779966   -2.331809    1.780910
H      8.126816   -1.055194    1.785710
H      7.767858   -1.440220    0.003103
H      7.933072    0.214739    0.585885
H      1.567083   -2.220434    1.494911
H      1.934365   -3.132933   -1.581064
H     -0.002441   -3.755239    1.737955
H      4.018254   -2.849065   -1.579714
H     -1.267367   -2.941647   -1.104788
H     -2.339498    0.702072   -1.140128
H     -1.632834    1.047722    0.459728
H     -3.870756    2.486383    0.919444
H     -2.180500    2.911880   -1.819957
H     -2.353155    3.519173   -0.203022
H      3.830366   -0.643692    0.670342
H     -2.632462   -4.787459   -0.569854
H     -2.913503   -4.276504    1.074065
H      0.670633    1.282033   -1.659133
H     -0.955364    4.767784    0.498381
H      3.165578    4.311693    0.296015
H      5.881999    1.829777   -0.010072
H      4.459265    1.227635    0.875814
H     -2.371123   -1.212307    0.289888
H      6.332291   -0.349095   -0.861467
H     -4.542107   -3.302656   -0.126562
H     -3.962957   -0.465747   -1.429376
H      1.378057    6.705906    0.780503
H     -2.821547   -2.042645   -2.004030
H      4.174212    0.797043   -3.235844
H     -5.922356   -1.617426    0.261363
