55

C     -6.599477    1.295200    2.281024
C      4.575331    3.054474    2.600065
C     -4.541218    1.814535   -2.812143
C      5.868420    0.233795   -1.986228
C     -3.232425   -1.100570    1.106269
C      2.440827   -0.388240    1.671089
C     -4.315747   -0.344984    1.517645
C      3.153848    0.751036    1.970118
C     -1.572421   -1.798303   -0.559699
C     -3.311446   -0.068797   -1.017578
C      3.811356   -0.621582   -0.297635
C      2.021719   -2.298183    0.175819
C      0.002263    0.140589   -0.928828
C     -2.717181   -0.972062   -0.165026
C      2.775543   -1.076012    0.527729
C     -0.221790   -1.191445   -0.243272
C     -4.904902    0.561430    0.648923
C      4.170105    1.187419    1.150105
C     -4.404252    0.703460   -0.624496
C      4.527334    0.515273   -0.004564
C      1.263086   -1.449657   -2.016427
C      0.864654   -2.099750   -0.733318
O      2.014991   -1.970950   -2.863430
O      0.354908   -3.384960   -1.024111
O     -5.990377    1.336223    1.022369
O      4.916541    2.343635    1.424897
O     -4.997330    1.611665   -1.489683
O      5.554918    0.970669   -0.818575
O      0.685983   -0.199152   -2.132330
H     -6.003071    1.883636    3.007026
H     -7.630569    1.675621    2.190666
H     -6.658605    0.240472    2.676938
H      4.561752    2.416841    3.495120
H      3.537235    3.458006    2.443645
H      5.299433    3.902902    2.714885
H     -5.336657    2.323386   -3.406851
H     -3.644639    2.460472   -2.833740
H     -4.305978    0.867320   -3.338664
H      5.032723    0.228522   -2.710384
H      6.035244   -0.849525   -1.720669
H      6.780833    0.614242   -2.475475
H     -2.820658   -1.790128    1.837002
H      1.630667   -0.738990    2.334452
H     -4.726546   -0.435799    2.505570
H      2.915430    1.322760    2.869980
H     -1.646883   -1.938468   -1.678545
H     -1.591504   -2.828502   -0.149286
H     -2.958291    0.076486   -2.028266
H      4.065032   -1.186229   -1.208951
H      2.739559   -2.969472   -0.351416
H      1.693345   -2.854748    1.076443
H      0.720677    0.765365   -0.349109
H     -0.887418    0.743947   -1.072095
H     -0.175687   -1.012610    0.844231
H      1.181315   -3.930263   -1.224957
