55

C     -7.414650    2.155693    1.236415
C      7.565108   -1.926351   -0.293957
C     -5.476418   -2.716335   -0.603390
C      5.208261    3.034709   -1.187046
C     -3.458520    1.790779   -0.007063
C      3.612193   -1.309346    0.828450
C     -4.770301    1.877300    0.396131
C      4.925752   -1.501847    0.451213
C     -1.571360    0.414567   -0.924552
C     -3.793091   -0.502581   -0.511419
C      3.750250    0.945344    0.015047
C      1.612637    0.168147    0.999802
C     -1.055493   -1.181281    0.963843
C     -2.956602    0.593130   -0.466590
C      3.029616   -0.085449    0.608524
C     -0.698950    0.066748    0.230928
C     -5.640812    0.807661    0.368263
C      5.639674   -0.479931   -0.136983
C     -5.105085   -0.391590   -0.101629
C      5.062797    0.756454   -0.363082
C      0.714468   -1.672056   -0.418226
C      0.737687   -0.197017   -0.183862
O      1.618326   -2.279236   -1.065212
O      1.107570    0.480392   -1.318677
O     -6.964645    0.900393    0.776707
O      6.958232   -0.668447   -0.517262
O     -5.940826   -1.482626   -0.145200
O      5.820564    1.777279   -0.965693
O     -0.428305   -2.203047    0.181117
H     -7.335306    2.951269    0.489114
H     -8.465966    2.045981    1.627679
H     -6.822682    2.509085    2.130019
H      7.701516   -2.119963    0.789636
H      6.874110   -2.706404   -0.697008
H      8.516604   -2.040889   -0.834145
H     -5.160358   -2.689510   -1.677597
H     -6.206968   -3.534248   -0.494504
H     -4.558134   -3.059938   -0.052844
H      5.935650    3.723593   -1.643497
H      4.338130    2.933719   -1.894457
H      4.778927    3.434281   -0.246622
H     -2.808103    2.647326    0.028786
H      3.056230   -2.115348    1.289969
H     -5.175273    2.819409    0.760541
H      5.346238   -2.479011    0.641862
H     -1.558626   -0.341074   -1.736328
H     -1.222408    1.384717   -1.343721
H     -3.415440   -1.468570   -0.879975
H      3.304747    1.901467   -0.160018
H      1.426152    1.241289    1.210290
H      1.353104   -0.408754    1.885112
H     -2.113207   -1.381953    1.101329
H     -0.514918   -1.224647    1.954110
H     -0.687321    0.915601    0.936273
H      1.325225   -0.108882   -2.083322
