39

C     -1.865427    0.141110    1.160004
C      3.163564   -0.018724    0.725887
C      2.779846    0.826869   -0.301775
C      2.259000   -0.953656    1.168744
C      1.520066    0.739987   -0.874115
C      1.021209   -1.033974    0.601458
C     -0.743615   -0.338466   -1.000005
C     -1.769633    0.516060   -0.299075
C      0.600788   -0.201990   -0.432043
N     -3.084098    0.354272   -0.889712
C      0.414850    0.448664    0.155670
C     -0.537177   -0.442353   -0.604583
C      1.779700    0.420693   -0.379895
C     -1.917637   -0.210319   -0.111731
O      0.372742    0.121292    1.497099
O     -0.174755   -1.775678   -0.446669
O      1.976933    0.697026   -1.589863
O      2.879453    0.101762    0.385890
O     -2.621632   -1.133065    0.374955
O     -2.444428    1.068737   -0.192798
H     -2.839653    0.512586    1.570084
H     -1.928185   -0.968890    1.229950
H     -1.013476    0.512252    1.761620
H      4.136524    0.019564    1.196101
H      3.497269    1.547744   -0.632816
H      2.502743   -1.638141    1.965719
H      1.238357    1.410083   -1.676832
H      0.315380   -1.782337    0.965466
H     -0.782128   -0.127745   -2.092278
H     -1.065874   -1.393670   -0.878548
H     -1.524475    1.592605   -0.341926
H     -3.208410    0.929943   -1.751319
H     -3.209768   -0.645482   -1.174591
H      0.033442    1.491416    0.063801
H     -0.490704   -0.202352   -1.701273
H      1.296243    0.027954    1.821523
H     -0.913636   -2.383881   -0.712358
H      3.782127    0.547565    0.185082
H     -3.435521    1.222539   -0.315739
