48

C     -4.814952   -0.055093    0.469211
C      2.136063   -1.700948   -1.709961
C      2.355189   -2.393491    0.609799
C     -2.494159    1.077531    1.153149
C     -3.738969   -0.629998   -0.038147
C      4.292682    1.286230    0.838021
C      3.732647    0.024160    0.552804
C      3.609638    2.462201    0.625770
C     -0.225924   -0.996192    1.193373
C      0.250964    2.567195   -0.702596
C     -3.351662   -0.035507   -2.644386
C      0.509337    1.200565   -0.668543
C      2.458254   -0.050697    0.043485
C      0.300837   -1.198268   -0.196660
C      2.315375    2.364174    0.107230
C     -1.716279   -1.255832    1.093086
C      1.786924    1.122236   -0.164588
C     -0.195007   -0.057756   -1.018505
C     -1.663914    0.154841   -0.982790
C      1.790126   -1.350079   -0.276925
C     -2.364271   -0.171071    0.270793
Cl    -2.494744   -1.451873    2.646790
N      1.345363    3.225964   -0.234862
N     -2.315040   -0.535562   -2.106399
S     -4.557523    0.617583   -3.518072
H     -4.748290    0.805094    1.156217
H     -5.826035   -0.377293    0.254294
H      2.532197   -0.836030   -2.268528
H      1.251462   -2.076321   -2.271450
H      2.895054   -2.514622   -1.773260
H      1.643375   -3.176105    0.929715
H      3.226809   -2.944390    0.171509
H      2.758146   -1.955767    1.569172
H     -2.933813    0.808840    2.135958
H     -3.069834    1.870921    0.629917
H     -1.486491    1.492810    1.355620
H     -3.862914   -1.466142   -0.703383
H      5.291377    1.368359    1.238337
H      4.302163   -0.851952    0.734993
H      4.027340    3.423402    0.839615
H      0.169894   -1.693728    1.938628
H     -0.085900    0.026963    1.580679
H     -0.684887    2.968800   -1.054158
H     -0.154031   -2.131041   -0.597389
H     -1.822770   -2.204546    0.490263
H      0.059456   -0.265484   -2.103498
H     -1.836872    1.250235   -1.201654
H      1.403608    4.257681   -0.160006
