48

C      3.622042   -1.803821   -1.260895
C     -1.742002   -2.525720   -0.384720
C     -1.880461   -0.936939   -2.218441
C      3.830064    0.338689    0.722081
C      2.912408   -0.682595   -1.248897
C     -4.486112    0.184002    1.090838
C     -3.669274   -0.652639    0.344794
C     -4.012860    1.431808    1.518983
C      0.476803   -1.440262    0.657910
C     -0.764466    2.746641    0.857693
C      2.799036    3.089646   -0.640649
C     -0.744863    1.513872    0.237473
C     -2.390926   -0.245076    0.029864
C     -0.025677   -0.718807   -0.562858
C     -2.749643    1.831547    1.206312
C      1.896878   -1.094726    0.996971
C     -1.965296    0.969929    0.461017
C      0.248606    0.741859   -0.547110
C      1.618157    1.083032   -0.070983
C     -1.469642   -1.079150   -0.757664
C      2.531040   -0.113414    0.074669
Cl     1.882510   -0.353005    2.635053
N     -1.969157    2.916586    1.429475
N      2.271637    1.993104   -0.999372
S      3.803765    4.166014    0.009158
H      3.925718   -2.306250   -0.373552
H      3.890607   -2.203139   -2.250444
H     -1.914112   -2.671110    0.687114
H     -0.990349   -3.211454   -0.824975
H     -2.708811   -2.794192   -0.903169
H     -2.857725   -1.422576   -2.379000
H     -1.999759    0.135533   -2.478714
H     -1.073582   -1.382283   -2.827431
H      4.574948   -0.481242    0.752412
H      4.313098    1.157025    0.116778
H      3.699767    0.724674    1.731415
H      2.598489   -0.164084   -2.133226
H     -5.494683   -0.104548    1.355687
H     -4.071858   -1.603312    0.035602
H     -4.646160    2.099149    2.106647
H      0.443113   -2.530594    0.455242
H     -0.223706   -1.290314    1.530210
H      0.039055    3.458427    0.886156
H      0.514948   -1.176229   -1.444711
H      2.543902   -1.998706    1.094850
H      0.164972    1.088146   -1.621003
H      1.577851    1.581510    0.922171
H     -2.328288    3.734995    1.981240
