41

C     -3.629495    0.608169    0.210571
C     -3.697566   -0.829497    0.602967
C      3.288294   -1.365788    0.673102
C     -2.559568    1.320399    0.993058
C      2.849060   -1.216134   -0.739310
C      3.750970   -0.051790    1.260689
C     -2.396172   -1.386399    1.091844
C     -0.459047    0.427413   -1.707890
C      0.783853    1.902122   -0.122796
C     -0.569123    1.352942   -0.527221
C      0.461538   -0.720274   -1.287397
C     -1.198513    0.732731    0.670687
C      1.817369   -0.160736   -0.987433
C      2.633215    0.905611    1.129028
C     -0.205610   -1.372546   -0.143583
N     -1.250120   -0.694728    0.526162
N      1.768660    0.862154    0.015965
O      2.494547    1.762750    2.064830
O      0.129378   -2.519357    0.253637
H     -4.607939    1.099886    0.465085
H     -3.505883    0.759994   -0.881688
H     -4.492288   -0.956549    1.391012
H     -4.099450   -1.405415   -0.279619
H      4.205431   -2.024447    0.656607
H      2.570120   -1.863918    1.324060
H     -2.522341    2.397790    0.727343
H     -2.805483    1.253134    2.071363
H      2.472447   -2.227098   -1.075855
H      3.762753   -1.048727   -1.359672
H      4.625486    0.282668    0.676321
H      4.004992   -0.168357    2.312028
H     -2.382699   -2.468661    0.907897
H     -2.326731   -1.245322    2.200403
H     -1.464536    0.009648   -1.899453
H     -0.094060    0.963917   -2.581449
H      0.630842    2.438289    0.835023
H      1.119754    2.570895   -0.944040
H     -1.186709    2.248020   -0.818084
H      0.543924   -1.468594   -2.105373
H     -0.585506    0.918059    1.602963
H      2.126205    0.377748   -1.935571
