26

C      4.480337    0.996136    0.697830
C      2.908124   -2.120539    0.460101
C      3.641779    0.203210    0.347549
C     -3.433270    0.981259    1.293272
C     -2.336352    0.736515    2.054163
C     -3.345229    0.867664   -0.062228
C     -1.166653    0.381459    1.447170
C      2.612343   -0.736894   -0.079154
C     -2.136520    0.499813   -0.703864
C     -1.031401    0.252654    0.053953
C     -2.207921    0.424364   -2.132405
C      0.247515   -0.128438   -0.501148
O     -3.324529    0.687125   -2.700196
O     -1.210594    0.098425   -3.002397
O      0.560137   -0.291102   -1.683206
O      1.332429   -0.361292    0.389242
H      5.234611    1.686832    1.017608
H      3.929795   -2.466599    0.217165
H      2.840007   -2.089927    1.577061
H      2.129512   -2.823402    0.101733
H     -4.377852    1.267846    1.781356
H     -2.437771    0.835656    3.137727
H     -4.246802    1.073297   -0.620193
H     -0.300650    0.188717    2.055157
H      2.634967   -0.817049   -1.194171
H     -0.996013    0.654267   -3.839104
