41

C      4.121866   -0.344131    0.199253
C      3.797537    1.091098    0.000738
C     -4.091776    0.984928   -0.279883
C      2.951323   -1.257775    0.327494
C     -2.644034    1.428136   -0.247955
C     -4.271407   -0.480295   -0.042711
C      2.732314    1.272909   -1.085539
C      0.190697   -0.375768    1.507803
C     -0.639028   -1.470077   -0.595619
C      0.476854   -1.324970    0.382358
C     -0.485673    0.858709    0.921154
C      1.699866   -0.812827   -0.344190
C     -1.856932    0.446706    0.529746
C     -3.148307   -1.306000   -0.555453
C      0.369511    1.280189   -0.203396
N      1.562807    0.591642   -0.531826
N     -1.841519   -0.809858   -0.226147
O     -3.249082   -2.344788   -1.216721
O      0.041514    2.273369   -0.893697
H      4.780976   -0.663584   -0.657708
H      4.779664   -0.420317    1.097417
H      3.449551    1.515806    0.972982
H      4.721677    1.632472   -0.255294
H     -4.691727    1.545699    0.487783
H     -4.560457    1.212608   -1.277120
H      2.745275   -1.402756    1.416342
H      3.247438   -2.262195   -0.044989
H     -2.327487    1.522072   -1.315157
H     -2.636599    2.449592    0.180687
H     -5.191753   -0.868933   -0.522849
H     -4.393756   -0.723680    1.052634
H      3.056124    0.665159   -1.950386
H      2.553784    2.322919   -1.297052
H      1.122509   -0.037366    1.982641
H     -0.521758   -0.821356    2.223691
H     -0.343211   -1.080259   -1.613267
H     -0.871903   -2.555064   -0.763306
H      0.680065   -2.327701    0.856908
H     -0.568140    1.666062    1.686621
H      1.667641   -1.283116   -1.372467
H     -2.414445    0.212743    1.466481
