26

C      3.148175    3.051219    1.192072
C      3.167432   -0.394138    2.141147
C      2.711366    1.932562    1.425094
C     -1.944596   -0.878840   -3.077323
C     -0.573583   -0.690025   -3.061272
C     -2.672081   -0.786883   -1.904638
C     -0.011000   -0.419385   -1.849330
C      2.155679    0.572740    1.716280
C     -2.071895   -0.509581   -0.680067
C     -0.698376   -0.318874   -0.660333
C     -2.871547   -0.498733    0.523063
C      0.039093    0.072404    0.562733
O     -2.528404   -0.370559    1.675811
O     -4.274870   -0.671164    0.307300
O     -0.448554    0.312333    1.662769
O      1.433952    0.186853    0.503728
H      3.519648    3.984295    1.004342
H      4.178033    0.046543    1.968845
H      3.132362   -0.643877    3.232649
H      3.162794   -1.362639    1.609480
H     -2.392542   -1.097490   -4.034322
H      0.036131   -0.743531   -3.964151
H     -3.743912   -0.931206   -1.982136
H      1.082153   -0.260775   -1.782325
H      1.392747    0.735837    2.453920
H     -4.928206   -0.317085    1.016662
