69

C     -1.327069    3.188788    0.369245
C      2.698220    1.685785   -3.378809
C     -2.053995    1.898974    0.499777
C      7.444838   -1.189812    1.194593
C      7.267024    1.069521    0.378026
C      8.794507   -1.174192    0.867999
C      8.613666    1.059831    0.061428
C      5.256656   -0.073466    1.290832
C      4.472389   -0.571400    0.107541
C      0.883091    0.398256    1.113724
C     -7.204270    1.343896    0.174052
C     -0.347587   -1.334100   -1.016505
C      6.715218   -0.062290    0.939456
C      9.389617   -0.062230    0.303673
C     -1.380717    0.753430    0.277122
C      0.067098    0.841743   -0.090683
C      0.298706   -0.173346   -1.149838
C     -6.494524    0.012531    0.359240
C      2.328329    0.475976    0.780994
C     -7.143819   -1.062563   -0.514858
C     -6.414647   -2.348384   -0.217641
C     -4.936423   -2.239345   -0.300663
C      1.184693    0.091359   -2.271068
C     -2.104230   -0.531941    0.406770
C     -4.377545   -0.919708    0.161204
O     -6.537291    2.289723    0.917841
O     10.746592   -0.053897   -0.022079
O      2.856579    1.614908    0.833673
O     -8.471022   -1.214440   -0.174709
O     -6.858679   -3.300250   -1.163007
O     -4.374634   -3.251236    0.479886
O      1.404034   -0.739541   -3.182267
O      1.816385    1.318240   -2.336440
O      3.103863   -0.588487    0.428926
O     -1.194068   -1.585116    0.054687
O     -5.201410    0.153147   -0.077696
O     -3.157614   -0.637309   -0.497376
H     -2.046219    3.991300    0.655518
H     -1.050986    3.402147   -0.699839
H     -0.460848    3.259452    1.035544
H      3.676570    1.918276   -2.882948
H      2.393896    2.624349   -3.887766
H      2.857976    0.864233   -4.106397
H     -3.101569    1.817177    0.765273
H      6.983677   -2.066636    1.637527
H      6.622087    1.918037    0.208934
H      9.382219   -2.073637    1.069957
H      9.042892    1.962489   -0.383858
H      4.953564    0.953141    1.540074
H      5.119389   -0.735110    2.156947
H      4.806392   -1.602854   -0.160368
H      4.683676    0.044995   -0.796444
H      0.632080   -0.651799    1.359072
H      0.659905    1.019487    2.002105
H     -7.139117    1.629151   -0.895580
H     -8.256977    1.274414    0.517150
H     -0.148544   -2.052740   -1.817934
H      0.312542    1.854397   -0.411887
H     -6.572011   -0.306932    1.428297
H     -6.974615   -0.794936   -1.574578
H     -6.766788   -2.714109    0.768482
H     -4.606826   -2.442763   -1.353299
H     -2.453430   -0.692728    1.440077
H     -4.219559   -0.993978    1.255703
H     -5.832145    2.690053    0.360044
H     11.462475    0.248458    0.637512
H     -8.765065   -2.159076   -0.122473
H     -6.520409   -4.200560   -0.954388
H     -4.436192   -3.066755    1.446170
