46

C     -0.557328   -3.113646   -1.373864
C      1.674437   -3.367805   -0.195228
C     -1.550976    2.590802   -1.578134
C     -5.804258    0.270444   -0.157025
C      5.594960    1.260074    2.736080
C     -5.402980    1.127004   -1.155771
C     -4.869378   -0.086606    0.791646
C      5.676270    1.492339    1.374883
C      4.523208    0.584870    3.256908
C     -4.108175    1.604045   -1.194675
C     -3.576213    0.396121    0.744002
C      4.661160    1.027540    0.592595
C      3.500899    0.120843    2.439507
C      0.507600   -2.493841   -0.545825
C     -1.780816    1.779473   -0.315579
C     -3.161150    1.254498   -0.250599
C      3.564569    0.340245    1.099783
C      0.452956   -1.243487   -0.129019
C      2.529650   -0.115857    0.176513
C     -0.677362   -0.382291   -0.463805
N     -0.752882    0.832510   -0.070450
N      1.532080   -0.744634    0.664227
O      2.582019    0.099473   -1.177205
O     -1.737868   -0.838862   -1.232381
H     -0.655542   -2.576114   -2.338975
H     -1.511066   -3.114160   -0.795333
H     -0.343021   -4.178373   -1.590453
H      2.286712   -3.570013   -1.104053
H      1.365229   -4.299909    0.306429
H      2.320618   -2.809997    0.512755
H     -1.831499    2.049405   -2.479483
H     -0.496534    2.930087   -1.561170
H     -2.166785    3.521977   -1.509511
H     -6.814236   -0.124396   -0.095115
H      6.381157    1.614546    3.380799
H     -6.111536    1.427606   -1.916367
H     -5.139880   -0.767583    1.609041
H      6.530619    2.024682    1.003939
H      4.486122    0.417241    4.328263
H     -3.796560    2.284169   -1.991048
H     -2.838240    0.108025    1.501611
H      4.691179    1.190986   -0.481360
H      2.654500   -0.413176    2.857112
H     -1.696697    2.544718    0.516912
H      1.960790   -0.367690   -1.848686
H     -2.095749   -0.285283   -2.027474
