58

C     -1.848421    1.054308   -2.278341
C      0.043900   -1.732921    1.853084
C     -4.488858   -1.516557    0.920010
C     -4.974042   -0.147847   -1.040074
C     -0.517333   -1.281851   -0.554963
C     -1.982573   -1.322452   -0.404397
C     -3.129488    2.189639   -0.571792
C     -4.578297    0.908643    1.132742
C      4.210120    1.228274   -2.398706
C     -2.534035    1.054350   -0.992087
C      0.243908   -0.860386    0.667198
C     -3.805157    2.124092    0.732943
C     -2.675245   -0.066814   -0.040897
C      3.898960    1.084050   -0.936255
C      4.701525   -0.117685   -0.416943
C      4.605478   -0.030679    1.069785
C      3.240424    0.316847    1.521281
C      2.191793    0.386356    0.468162
C     -4.143130   -0.248365    0.222381
O      5.566819    1.555407   -2.516960
O     -3.727120    3.106800    1.515917
O      6.005711   -0.081414   -0.888789
O      5.043020   -1.255965    1.598209
O      3.290034    1.550637    2.176077
O      1.603377   -0.874324    0.359113
O      2.585699    0.764989   -0.770852
H     -0.813526    1.454514   -2.235738
H     -1.909291    0.100603   -2.848483
H     -2.378172    1.789078   -2.965358
H      0.735120   -2.592461    1.872227
H      0.302684   -1.119538    2.766201
H     -0.995942   -2.066379    2.015761
H     -4.686523   -2.368567    0.214334
H     -3.790438   -1.797428    1.728163
H     -5.483614   -1.352623    1.430769
H     -4.560671   -0.788280   -1.854034
H     -5.967821   -0.601501   -0.793002
H     -5.162771    0.881585   -1.350742
H     -0.185633   -0.682700   -1.419491
H     -0.199407   -2.336554   -0.823739
H     -2.248006   -2.147636    0.283491
H     -2.402857   -1.653579   -1.401322
H     -3.120802    3.089497   -1.135373
H     -5.658521    1.067040    1.105865
H     -4.257125    0.692325    2.191793
H      3.634592    2.003344   -2.903663
H      4.104074    0.212655   -2.859146
H     -0.057023    0.179965    0.933862
H     -2.259363    0.357498    0.931568
H      4.249422    1.948198   -0.364793
H      4.169858   -1.035882   -0.741305
H      5.382513    0.717852    1.402995
H      2.947774   -0.426320    2.320782
H      1.359830    1.081031    0.788037
H      5.820638    2.289915   -1.900155
H      6.541645   -0.684037   -0.306838
H      5.372699   -1.060844    2.521383
H      2.689585    1.562868    2.970103
