58

C     -3.516480   -1.766706    1.652159
C     -0.270240   -1.489858    1.274261
C     -4.348991    2.690112    0.031312
C     -5.474795    0.521725   -0.016532
C     -0.476709    0.972132    0.706272
C     -1.820942    1.208229    0.206461
C     -3.423232   -1.312532   -0.749132
C     -3.788809    1.013086   -1.714853
C      4.893320    1.315289    1.030649
C     -3.325936   -0.832271    0.511524
C      0.267223   -0.278773    0.594810
C     -3.239611   -0.366893   -1.858374
C     -3.065589    0.595767    0.617569
C      4.455787    0.910822   -0.373825
C      5.250439   -0.270529   -0.874195
C      4.365286   -1.461906   -1.175414
C      3.386632   -1.517113    0.001975
C      2.475527   -0.340566   -0.182262
C     -4.176643    1.242220   -0.274132
O      6.278473    1.387529    1.118700
O     -2.646330   -0.700790   -2.887183
O      6.027776    0.002479   -1.981807
O      5.085068   -2.627223   -1.286898
O      2.688201   -2.714217    0.010012
O      1.637491   -0.124158    0.883170
O      3.118712    0.818448   -0.530217
H     -3.192499   -1.273048    2.568789
H     -4.598821   -2.023301    1.782747
H     -3.004153   -2.722421    1.481962
H      0.589966   -2.126859    1.675616
H     -0.852894   -2.166867    0.640259
H     -0.840596   -1.251520    2.193533
H     -3.911311    3.000373    0.997894
H     -5.432465    2.994112    0.090629
H     -3.902985    3.346251   -0.748359
H     -6.345760    1.220086   -0.073071
H     -5.666154   -0.293000   -0.749240
H     -5.511002    0.073313    1.001764
H     -0.454560    1.288272    1.836333
H      0.161197    1.845444    0.297680
H     -1.697912    1.179422   -0.952414
H     -2.042427    2.373435    0.267865
H     -3.622453   -2.339737   -0.905396
H     -4.771330    1.030808   -2.284999
H     -3.169216    1.796300   -2.141111
H      4.434613    0.685965    1.816537
H      4.534615    2.361480    1.260153
H      0.288970   -0.565162   -0.520105
H     -3.302789    0.962334    1.670543
H      4.796229    1.772162   -1.027155
H      5.927377   -0.587186   -0.050271
H      3.774383   -1.217732   -2.081508
H      4.001641   -1.488423    0.912353
H      1.831812   -0.602584   -1.067454
H      6.617295    1.182071    2.016496
H      6.624085    0.785409   -1.764242
H      5.308130   -2.746339   -2.246606
H      3.073387   -3.367367   -0.633273
