24

C     -2.054923    0.871599    0.846942
C     -0.615788    1.301057    0.759124
C     -2.183400   -0.289848   -0.108108
C     -0.486882   -1.602815   -1.193776
C      2.395330    0.308047    0.376126
C     -0.017803    0.516929   -0.354730
C      0.913634   -1.616247   -0.575606
C      1.101120   -0.393105    0.067416
N     -1.029438   -0.297424   -0.947064
O      2.555242    1.426383   -0.439992
O      0.854968   -1.513410    0.825925
H     -2.234562    0.518935    1.890756
H     -2.750369    1.690294    0.630724
H     -0.068167    1.182387    1.716533
H     -0.565062    2.396272    0.497388
H     -2.373914   -1.207913    0.447591
H     -3.071518   -0.093152   -0.752871
H     -0.473714   -1.899577   -2.252590
H     -1.085401   -2.324391   -0.566502
H      3.274700   -0.362453    0.325257
H      2.335406    0.679627    1.425693
H      0.389177    1.189953   -1.153582
H      1.705917   -2.187697   -1.050768
H      3.485445    1.706550   -0.413886
