24

C     -0.027300    1.496188    1.705469
C      3.115780   -1.658391   -0.471506
C      1.999971   -2.140858    0.235240
C      3.037344   -0.351560   -0.885406
C      0.906916   -1.337553    0.483081
C      1.937085    0.460521   -0.636596
C     -3.870313   -0.192404   -0.443106
C     -0.284127    0.863152    0.333845
C      0.852513   -0.025177    0.055458
C     -2.633621    0.668362   -0.512298
Cl    -4.447652   -0.528246   -2.072853
O     -2.595962    1.692085   -1.212443
O     -1.524023    0.342592    0.191487
H     -0.852894    2.210462    1.966513
H      0.883057    2.113115    1.579953
H      0.160044    0.774291    2.487168
H      3.983017   -2.234441   -0.694192
H      2.060988   -3.158740    0.553050
H      3.855441    0.138568   -1.439286
H      0.073991   -1.713842    1.032485
H      1.949234    1.495270   -1.006246
H     -3.707208   -1.075220    0.188096
H     -4.685456    0.412972    0.063732
H     -0.186824    1.748854   -0.344703
