39

C      2.913004    1.329939   -0.402097
C     -0.981415   -2.549410   -0.402085
C     -0.525180    0.416154    2.369126
C     -2.268359   -0.401482    0.589367
C     -1.233339    2.253404   -0.329312
C      1.827556   -0.399127   -1.660095
C     -0.073569    2.094586    0.645193
C     -1.134455    0.929084   -1.097548
C      0.562613   -1.172226   -1.733009
C      0.932211   -1.474822    0.649141
C      2.046403    0.345901   -0.400304
C      1.316812    0.002898    0.838718
C     -0.153090   -1.286288   -0.415539
C     -0.023771    0.637822    0.958606
C     -0.917898   -0.071171   -0.017373
H      3.469355    1.614783   -1.284105
H      3.094009    1.890522    0.502647
H     -1.691824   -2.602861    0.427095
H     -1.463721   -2.746772   -1.384399
H     -0.254282   -3.398585   -0.240545
H      0.188557    0.937646    3.062998
H     -0.553916   -0.629742    2.671637
H     -1.551018    0.828551    2.461740
H     -2.206136   -0.960754    1.522354
H     -2.806994    0.532970    0.755423
H     -2.821899   -0.976695   -0.188013
H     -2.195115    2.384777    0.159206
H     -1.068669    3.109603   -1.016753
H      1.848399    0.324726   -2.509904
H      2.728947   -1.051486   -1.839813
H     -0.336889    2.687710    1.555928
H      0.806033    2.508093    0.154894
H     -0.327591    1.049967   -1.812647
H     -2.118355    0.749771   -1.584951
H     -0.117772   -0.838824   -2.552991
H      0.824222   -2.233735   -2.025333
H      0.558597   -1.927940    1.560167
H      1.786290   -2.045519    0.256129
H      1.922247    0.138535    1.756450
