82

C      6.155926   -1.392354   -0.062032
C     -5.329045    1.517760    0.012429
C     -3.766025   -0.814538    2.028884
C      5.059506    0.715514    0.890869
C      2.073024    2.152659    0.904849
C     -0.546207    0.584976    2.227453
C     -0.800791   -0.906046   -1.294085
C      4.653618    0.601074   -2.358978
C      3.704854    1.414334   -1.465527
C      2.024965   -0.548651    1.964339
C      3.383386   -0.960186    1.492686
C     -5.241307   -0.926669   -0.490473
C     -4.120436   -1.848009   -0.125783
C     -1.994552   -2.134750    0.995903
C      0.863978    1.462301   -1.062116
C     -0.661680   -1.681339    1.383825
C     -0.594146    1.435817   -0.699776
C     -3.323838    0.558259   -1.160331
C     -5.476593    0.703682   -2.274893
C      4.741889   -1.231926   -0.501598
C      4.725287   -0.822680   -1.929522
C      3.032812    0.453516   -0.576114
C      1.182635   -0.215142    0.756303
C     -2.550193    0.124589    0.032043
C     -4.806150    0.433459   -0.919302
C     -3.048164   -1.124290    0.704908
C      3.974044   -0.216565    0.368544
C      1.747137    0.963820    0.092247
C     -0.300834   -0.240178    1.032251
C     -1.057479    0.089418   -0.208838
O     -5.140643    1.953267   -2.734026
O      4.773710   -1.715949   -2.788222
H      6.241585   -1.863662    0.957414
H      6.792441   -0.513282   -0.185794
H      6.596958   -2.178710   -0.745026
H     -4.513223    2.208588    0.267221
H     -5.741791    1.026760    0.927224
H     -6.145858    2.102253   -0.419094
H     -3.822074    0.283853    2.159056
H     -3.145491   -1.176311    2.894820
H     -4.737785   -1.277558    2.129017
H      5.755602    0.045208    1.477957
H      4.712267    1.465262    1.593792
H      5.665335    1.159320    0.103348
H      2.411485    2.009514    1.924143
H      2.931055    2.686023    0.388200
H      1.251465    2.931111    0.834191
H      0.133140    1.454914    2.346608
H     -1.537658    0.966908    2.424672
H     -0.295308   -0.055876    3.130900
H     -1.747168   -1.356689   -1.718381
H     -0.331594   -0.443588   -2.213418
H     -0.181544   -1.763010   -1.045184
H      4.332197    0.636253   -3.424869
H      5.681514    0.992853   -2.335791
H      2.980898    1.903480   -2.147555
H      4.310739    2.192051   -1.015234
H      1.520517   -1.455237    2.421645
H      2.008780    0.200649    2.753755
H      4.062559   -0.891567    2.395702
H      3.357120   -2.072573    1.286179
H     -5.871095   -1.448782   -1.238045
H     -5.907746   -0.797790    0.411023
H     -4.560734   -2.595304    0.603980
H     -3.718861   -2.446035   -0.934071
H     -1.947553   -2.866384    0.133123
H     -2.398917   -2.791576    1.827850
H      1.129441    0.942636   -1.979694
H      1.099829    2.551563   -1.267113
H     -0.483302   -1.816674    2.492536
H      0.102298   -2.365552    0.915713
H     -0.753049    2.160766    0.125151
H     -1.140639    1.787244   -1.599226
H     -3.148622    1.666745   -1.306926
H     -3.098242    0.098161   -2.111483
H     -6.576997    0.666768   -2.109089
H     -5.238759   -0.108335   -2.992765
H      4.242844   -2.226664   -0.387528
H      2.624608   -0.369870   -1.246566
H      1.352078   -1.118298    0.091844
H     -2.709156    0.960121    0.781225
H     -4.882274    2.515151   -1.965060
