56

C     -1.533170   -2.735597   -0.247557
C     -2.154203   -3.987394   -0.269464
C     -3.446482   -1.860794    0.797582
C     -2.020858    4.568588   -0.701424
C     -3.265181    2.943686    0.501649
C     -0.829172    1.125037   -1.621614
C      3.592128    1.976722    0.615162
C     -2.156389   -1.638508    0.283399
C     -3.005410    4.261752    0.202441
C     -1.525841    2.283386   -1.036056
C     -3.408084   -4.167529    0.238403
C     -1.256134    3.589882   -1.343942
C     -4.071216   -3.077546    0.785808
C     -2.533736    1.956647   -0.109906
C     -0.501735    0.039605   -0.606346
C      3.834828    0.710567   -0.204336
C      4.488056   -0.358255    0.634765
C      3.613055   -1.609971    0.713604
C      2.216410   -1.091354    0.987758
C     -1.592431   -0.267866    0.338626
C      1.767265   -0.362837   -0.253263
O      4.769760    2.283323    1.302237
O     -3.725476    5.285170    0.802245
O     -4.055028   -5.395104    0.233533
O     -0.279719    3.928104   -2.243838
O     -5.353774   -3.241961    1.310258
O      5.765675   -0.686998    0.211860
O      4.093070   -2.402751    1.754105
O      1.412631   -2.187789    1.239560
O     -2.724472    0.608351    0.128842
O      0.681486    0.456276    0.049886
O      2.762850    0.305035   -0.920746
H     -0.523271   -2.643621   -0.656283
H     -1.611469   -4.811466   -0.701461
H     -3.965652   -1.026865    1.221609
H     -1.811987    5.612583   -0.941053
H     -4.046134    2.675486    1.217988
H      0.072295    1.445643   -2.129352
H     -1.555207    0.659373   -2.352214
H      2.804261    1.850976    1.366136
H      3.407994    2.831936   -0.071055
H     -0.229634   -0.848196   -1.197798
H      4.625579    1.022374   -0.953697
H      4.568688    0.015511    1.677286
H      3.628182   -2.138598   -0.265763
H      2.293941   -0.436080    1.877168
H     -1.245293   -0.078508    1.369033
H      1.390769   -1.147177   -0.949660
H      5.585122    2.064520    0.765094
H     -3.588953    6.251292    0.631605
H     -4.970611   -5.510939    0.608083
H      0.267213    3.252309   -2.713610
H     -5.810250   -2.449032    1.697103
H      5.723413   -1.605328   -0.163286
H      3.710797   -3.308260    1.747754
H      1.721505   -2.927809    0.656468
