62

C      1.069518    3.234077   -2.008278
C      1.520082   -1.971024    1.443070
C     -6.547181    1.082047   -1.348724
C     -5.602841   -1.608279    2.191665
C      2.629212    1.474331    2.484702
C     -2.212241    1.053413   -0.820523
C     -3.541050    1.127968   -1.059883
C      2.025018   -2.223365   -1.857411
C      1.232235   -2.872293   -0.736264
C      4.123467   -0.882392   -1.693948
C     -1.890277   -1.557166    1.840907
C      6.261487    1.798977   -0.466309
C      0.782132    1.824903   -1.499040
C      2.847606   -1.089236   -1.354265
C     -1.603148    0.224081    0.143170
C     -2.464436   -0.564044    0.875297
C     -4.407818    0.341428   -0.333372
C      4.817738    0.173549   -1.115551
C      2.143713   -0.241046   -0.416136
C      0.730274   -0.616810   -0.396376
C     -3.818826   -0.517132    0.647787
C     -0.190605    0.438377    0.427647
C      4.193432    0.986981   -0.226495
C      2.831266    0.774852    0.132127
N      0.710026   -1.913212    0.226906
O     -2.090101   -1.141111    3.166950
O      1.229276    0.961203   -2.315159
O     -5.723262    0.347708   -0.508907
O     -4.719784   -1.281812    1.282607
O      2.340838    1.679722    1.091469
O      6.113236    0.646881   -1.252507
O      5.057576    1.990382    0.224276
O      0.156737    1.539990   -0.401560
H      2.065201    3.133033   -2.551934
H      0.312703    3.540230   -2.726389
H      1.274708    3.897117   -1.170192
H      1.388631   -3.016289    1.834045
H      1.063248   -1.335679    2.227818
H      2.573197   -1.841859    1.249883
H     -6.277737    0.914216   -2.394008
H     -6.517076    2.208108   -1.144341
H     -7.618645    0.778721   -1.146809
H     -6.574098   -2.021227    1.678669
H     -6.065340   -0.790784    2.820122
H     -5.388632   -2.468633    2.889487
H      2.761582    2.453867    2.966737
H      1.782920    0.916189    2.912810
H      3.563288    0.850578    2.461604
H     -1.581524    1.744305   -1.429449
H     -3.906018    1.822982   -1.821874
H      2.704891   -3.007423   -2.282576
H      1.350930   -1.779963   -2.654562
H      0.430293   -3.504217   -1.138947
H      1.935744   -3.510772   -0.178035
H      4.632694   -1.510792   -2.428941
H     -2.876503   -2.324928    1.878692
H     -1.220526   -2.300517    1.582205
H      7.059995    1.728555    0.304374
H      6.457737    2.728778   -1.088144
H      0.274262   -0.674765   -1.340041
H      0.386486    0.270526    1.251739
H     -1.995709   -0.121307    3.070187
