20

C      3.015604   -0.255848    0.020557
C     -1.650137   -1.625401    0.835670
C      2.219594    0.985082   -0.249345
C     -2.870805    1.124120   -0.952200
C     -1.354604   -0.171348    0.501893
C      0.091603    0.133651    0.603522
O     -3.374967    1.682919    0.070861
O      0.702929   -0.146986    1.666119
O      0.829127    0.718980   -0.414633
O     -1.872673    0.207187   -0.749282
H      2.901140   -0.647129    1.048761
H      2.753506   -1.032541   -0.727441
H      4.084634   -0.006525   -0.142202
H     -0.953972   -1.942824    1.637720
H     -1.583683   -2.280293   -0.060114
H     -2.698657   -1.696314    1.239814
H      2.315562    1.650927    0.642726
H      2.622290    1.477342   -1.151028
H     -3.251305    1.397313   -1.928070
H     -1.925187    0.427688    1.267478
