23

C      3.133477   -0.145532    0.144952
C      2.261368   -0.206541    1.202667
C      2.629831   -0.013991   -1.123658
C      0.903847   -0.135385    0.977017
C      1.249889    0.056191   -1.328795
C     -1.740663    1.215088    0.230432
C      0.367947   -0.003722   -0.279270
C     -1.079466    0.069487   -0.489770
C     -1.767064   -1.179853   -0.002006
N     -2.388297   -1.969090   -0.812655
O     -1.251324    2.454190   -0.157728
O     -1.762219   -1.536221    1.340332
H      4.212209   -0.198678    0.285963
H      2.685532   -0.311236    2.202418
H      3.305346    0.034980   -1.962265
H      0.263432   -0.187792    1.839406
H      0.915345    0.157957   -2.333582
H     -2.819467    1.192586   -0.046151
H     -1.690792    1.116942    1.328900
H     -1.350523    0.174985   -1.564269
H     -2.396419   -1.706233   -1.830049
H     -1.098954    3.074689    0.590715
H     -2.583037   -1.952822    1.787397
