22

C     -2.236145    1.288248    0.407451
C      2.218012   -1.613170    0.580999
C     -0.624126   -0.076756   -0.394534
C      0.840425    0.054753   -0.028404
C     -0.911011   -1.438955   -0.903851
C      1.039818    1.485295    0.373388
O     -0.290053   -1.884915   -1.898347
O     -1.878193   -2.198682   -0.253287
O      1.465222    1.727070    1.523887
O      0.762091    2.500969   -0.500202
O     -1.411036    0.229611    0.678807
O      1.186654   -0.791116    1.016552
H     -2.452371    1.441030    0.263498
H     -2.606606    1.854559    1.306511
H     -1.926830    1.926099   -0.484743
H      3.059953   -0.918824    0.301032
H      1.884627   -2.230726   -0.275934
H      2.590029   -2.268385    1.405999
H     -0.856491    0.620780   -1.226993
H      1.459536   -0.164142   -0.897773
H     -2.228000   -3.038004   -0.707160
H      0.914496    3.495263   -0.286899
