59

C     -3.971912    2.338584    1.232357
C     -3.694232    2.863241   -1.145814
C     -4.479342   -3.490793   -0.799894
C      8.378884    0.259378   -0.066718
C      7.730100    0.518697   -1.254906
C      7.670621   -0.275930    0.985362
C      6.386037    0.245928   -1.390854
C      6.313211   -0.541368    0.819322
C     -4.984915   -1.041062   -1.247086
C      4.202060   -0.565704   -0.570614
C     -4.764570    0.325389   -0.671395
C      3.426024    0.682516   -0.212979
C     -3.201216   -1.756915    0.288781
C      0.318658   -0.899549    2.588734
C     -3.145937    2.040745   -0.007262
C     -4.152628   -2.052641   -0.531380
C      5.643760   -0.293490   -0.349956
C     -3.261442    0.571097   -0.415940
C     -2.800263   -0.352480    0.621448
C      1.976934    0.574740   -0.399596
C     -0.982413   -0.848881    2.221763
C      1.374838   -0.447204    1.752928
C     -1.356395   -0.336498    0.972464
C      1.010557    0.051667    0.535731
C     -0.366983    0.104558    0.144915
O      1.580471    1.013730   -1.547008
O     -1.999233   -1.303108    3.068354
O      2.621064   -0.557927    2.238798
O     -0.677341    0.590479   -1.053474
H     -3.679651    1.780024    2.119321
H     -5.028261    2.312413    0.949386
H     -3.746360    3.421991    1.457596
H     -3.211526    3.866559   -1.084428
H     -3.472993    2.411537   -2.135143
H     -4.787433    3.048935   -1.015301
H     -5.571704   -3.655230   -0.834913
H     -4.122324   -4.084658    0.073269
H     -4.001118   -3.853827   -1.711131
H      9.430601    0.458658    0.078489
H      8.307192    0.936680   -2.061985
H      8.195134   -0.474618    1.913619
H      5.876010    0.446856   -2.318583
H      5.788003   -0.963523    1.662105
H     -4.825436   -1.065894   -2.341551
H     -6.043645   -1.331594   -1.070459
H      4.008231   -0.861765   -1.632651
H      3.930115   -1.450175    0.029911
H     -5.129202    1.119402   -1.385762
H     -5.251866    0.389748    0.319098
H      3.783645    1.077204    0.739774
H      3.805020    1.518812   -0.940160
H     -2.661340   -2.578387    0.768635
H      0.643398   -1.300067    3.565982
H     -2.101651    2.349518    0.155633
H     -2.797092    0.370326   -1.390676
H     -3.397917   -0.130503    1.564414
H     -1.709918   -1.667045    3.966198
H      3.516818   -0.465592    2.175159
H     -0.539127    0.957015   -1.882149
