53

C      6.544428   -3.945653    2.440176
C     -6.783590   -1.765532   -1.598829
C     -4.798279   -1.811928    3.434342
C      0.221106    5.585118   -1.196262
C     -1.675440    1.176871   -1.369584
C      5.375180   -0.470632   -0.448363
C      4.663142    0.612837   -0.936877
C     -3.045854    0.939399   -1.504650
C     -1.549723   -0.280089    0.460359
C      3.373634   -1.505813    0.217229
C      5.841385   -2.730496    1.969462
C     -5.351196   -1.324898   -1.446092
C     -4.105506   -0.979133    2.444944
C      0.443914    4.161557   -1.628677
C     -0.894264    0.593472   -0.409333
C      4.755254   -1.550901    0.137175
C      3.278192    0.646762   -0.851049
C     -3.616988    0.064620   -0.606980
C      2.639259   -0.424586   -0.268277
C     -2.888021   -0.555448    0.382424
C      2.563781    1.768921   -1.365046
C      0.540918    0.855238   -0.270351
C      1.056548    1.864674   -1.194434
O      5.579300   -1.726660    2.665963
O     -4.456531   -1.971361   -2.053910
O     -4.010097    0.273582    2.664018
O      0.224486    3.887033   -2.825386
O      3.088455    2.740232   -1.979028
O      5.419703   -2.660514    0.641984
O     -4.991675   -0.238584   -0.662908
O     -3.529978   -1.435060    1.264647
O      0.867548    3.202950   -0.759311
O      1.271294   -0.362135   -0.197366
H      6.494095   -4.071396    3.541633
H      6.024956   -4.850501    2.021914
H      7.592574   -4.006978    2.052343
H     -6.794457   -2.883271   -1.736607
H     -7.243590   -1.254323   -2.462948
H     -7.362498   -1.575696   -0.668951
H     -4.220917   -1.920696    4.393141
H     -5.158893   -2.779142    3.043996
H     -5.732812   -1.258605    3.742996
H     -0.574445    6.021371   -1.827328
H      1.139105    6.170203   -1.257680
H     -0.177617    5.524863   -0.154908
H     -1.278725    1.862711   -2.096577
H      6.440582   -0.473448   -0.525711
H      5.154691    1.460799   -1.397450
H     -3.605881    1.421396   -2.270862
H     -0.944904   -0.745917    1.221308
H      2.852590   -2.326833    0.665942
H      0.646923    1.266984    0.800033
H      0.698836    1.784635   -2.234293
