59

C     -3.195641    3.501662    0.692893
C     -4.397179    2.214623   -1.008126
C     -4.878270   -1.845074   -0.825843
C      5.606125    1.639429    2.794710
C      6.100043    0.382891    3.080481
C      4.812683    1.786165    1.678649
C      5.818912   -0.703241    2.285523
C      4.530668    0.694601    0.880452
C     -3.395330   -0.666111    0.900131
C      4.689624   -1.677271    0.277934
C     -3.023359    0.783039    1.113183
C      3.438981   -2.389933    0.677668
C     -3.073359   -0.379650   -1.474771
C      0.647144   -1.637531   -2.640642
C     -3.065418    2.578594   -0.498440
C     -3.752948   -0.946210   -0.495850
C      5.033266   -0.553507    1.181836
C     -2.235406    1.371932   -0.001028
C     -1.919632    0.539881   -1.150801
C      2.225910   -1.558663    0.699017
C     -0.461182   -0.848021   -2.456115
C      1.549773   -1.886928   -1.626852
C     -0.718217   -0.262719   -1.222998
C      1.320795   -1.320081   -0.393377
C      0.189392   -0.512188   -0.199425
O      1.957347   -0.990056    1.821561
O     -1.305369   -0.659647   -3.540843
O      2.663641   -2.709538   -1.903734
O     -0.133551    0.091692    0.961405
H     -3.047421    4.571555    0.419870
H     -4.208776    3.352391    1.166860
H     -2.464872    3.279433    1.494293
H     -4.266081    1.705268   -2.008358
H     -5.047062    1.636090   -0.365902
H     -4.978507    3.140839   -1.270631
H     -4.855894   -2.757572   -0.188229
H     -5.821842   -1.292462   -0.554986
H     -4.956973   -2.068238   -1.897998
H      5.847051    2.485842    3.445979
H      6.733071    0.243217    3.962696
H      4.433675    2.787327    1.471983
H      6.215058   -1.705118    2.517565
H      3.893465    0.880944    0.008363
H     -2.562557   -1.360231    1.175763
H     -4.208513   -0.892961    1.621588
H      4.617364   -1.272547   -0.727020
H      5.522096   -2.414908    0.361698
H     -2.466609    0.848277    2.061841
H     -3.990610    1.325734    1.332398
H      3.289318   -3.272850    0.054163
H      3.547722   -2.827539    1.722834
H     -3.362922   -0.584941   -2.520172
H      0.862708   -2.107205   -3.612356
H     -2.480798    3.138768   -1.261065
H     -1.323178    1.939219    0.363423
H     -1.875949    1.223935   -2.060314
H     -1.074114   -1.105787   -4.411373
H      2.799155   -3.105232   -2.809759
H      0.202549    0.170616    1.843040
