59

C     -5.862729   -1.966573   -5.269950
C      7.177747    1.194106   -1.881876
C      6.689168   -1.421792    2.521308
C     -4.679258    3.787239    1.612178
C     -1.565918   -0.554013    4.935009
C      1.464268   -0.088917   -1.141920
C      2.718923    0.153936   -1.640958
C      2.481547   -1.290361    0.682496
C     -4.474945    0.356792   -1.520713
C     -2.989511   -1.468808   -1.676338
C     -4.960559   -1.323413   -4.262483
C      5.852376    1.051660   -1.226542
C      5.494343   -0.832059    1.850885
C     -4.466745    2.412556    1.096314
C     -0.803973   -0.050981    3.742268
C      1.364155   -0.820156    0.032642
C     -4.182544   -0.886817   -2.039093
C      3.851414   -0.328452   -0.973031
C      3.725511   -1.052102    0.191740
C     -3.577923    0.975814   -0.665114
C     -2.081635   -0.870638   -0.826043
C     -2.379150    0.368842   -0.312821
C     -1.412107    0.987114    0.583955
C     -0.023817   -1.065984    0.548271
C     -0.461789    0.126187    1.347714
O     -4.052562   -0.552453   -4.667208
O      5.415177    1.903478   -0.442364
O      5.083247    0.311009    2.193207
O     -4.849240    1.380869    1.702759
O      0.222187    0.672068    3.874348
O     -1.421285    2.243835    0.676564
O     -5.078738   -1.536922   -2.911329
O      5.099631   -0.063104   -1.507701
O      4.829891   -1.529143    0.853338
O     -3.816662    2.225458   -0.112644
O     -1.203580   -0.364577    2.469417
O     -0.886500   -1.459268   -0.465923
H     -6.076517   -3.013172   -4.930253
H     -6.850416   -1.463776   -5.309853
H     -5.371122   -2.045849   -6.254457
H      7.503096    0.253892   -2.339408
H      7.963017    1.533193   -1.188798
H      7.113520    1.948229   -2.709252
H      6.647207   -2.535748    2.394263
H      6.677938   -1.230016    3.602985
H      7.613683   -0.998457    2.065989
H     -4.928270    4.494639    0.781558
H     -3.777848    4.208216    2.101500
H     -5.506174    3.795186    2.347485
H     -1.006304   -0.317603    5.838749
H     -2.519070    0.021095    4.957793
H     -1.816978   -1.629295    4.821867
H      0.611692    0.294699   -1.677362
H      2.815906    0.720851   -2.553292
H      2.350296   -1.850617    1.587274
H     -5.395877    0.860700   -1.770606
H     -2.758305   -2.459632   -2.090366
H      0.080007   -1.945288    1.249825
H      0.392102    0.734322    1.703997
