59

C      5.954937    0.358540    4.905030
C     -7.748702    0.288405    0.915948
C     -3.997290   -2.826134    2.635335
C      3.699335   -3.871807   -2.744407
C      1.430090    3.325268   -4.829714
C     -2.415308    2.193106   -0.969045
C     -3.763836    1.909810   -0.870746
C     -1.866054    0.107069   -0.025242
C      4.059407   -1.119294    0.927792
C      2.490960    0.364805    1.894768
C      5.277852    0.423676    3.596653
C     -6.310879    0.680968    0.852229
C     -3.661861   -1.526996    2.001879
C      3.318447   -3.035494   -1.565176
C      0.803062    2.301062   -3.951520
C     -1.444448    1.307286   -0.552806
C      3.622143   -0.412406    2.027712
C     -4.170537    0.707160   -0.341779
C     -3.230092   -0.193317    0.080419
C      3.369179   -1.041589   -0.276593
C      1.786022    0.455069    0.695489
C      2.239788   -0.262505   -0.400911
C      1.497582   -0.156979   -1.647151
C      0.013443    1.571439   -0.640416
C      0.603360    1.005140   -1.907060
O      5.576928    1.289427    2.709331
O     -5.829702    1.306221    1.804657
O     -3.478679   -0.495915    2.694799
O      2.557443   -3.522971   -0.691329
O     -0.203265    1.674165   -4.392564
O      1.634220   -1.068625   -2.488118
O      4.273606   -0.454485    3.252850
O     -5.522464    0.370086   -0.220112
O     -3.544212   -1.428642    0.625535
O      3.778120   -1.737429   -1.403842
O      1.241555    1.989624   -2.695477
O      0.664469    1.215247    0.534438
H      6.769212    1.111032    4.948733
H      6.392624   -0.642624    5.096226
H      5.238839    0.661134    5.724472
H     -7.982498   -0.526985    0.194530
H     -8.369287    1.161736    0.620378
H     -8.026236   -0.021889    1.943280
H     -5.055343   -3.125936    2.418356
H     -3.927406   -2.736116    3.736311
H     -3.296605   -3.635885    2.340330
H      2.854492   -4.547419   -3.051129
H      4.000596   -3.246672   -3.613339
H      4.522365   -4.526815   -2.430760
H      0.894372    4.273653   -4.839853
H      1.544348    2.970225   -5.874202
H      2.484163    3.501533   -4.465129
H     -2.072480    3.132137   -1.381498
H     -4.497050    2.625479   -1.205984
H     -1.116213   -0.601114    0.306982
H      4.933253   -1.746683    0.954174
H      2.122451    0.930417    2.736641
H      0.121388    2.694545   -0.730741
H     -0.239605    0.607262   -2.508521
