39

C      3.160039   -1.272140    0.401764
C     -0.974301    2.687069    0.255194
C     -0.564707   -0.876457   -2.233104
C     -2.259983    0.550163   -0.697268
C     -1.437149   -1.995835    0.736050
C      1.672216    0.308436    1.530961
C     -0.167489   -2.047421   -0.115022
C     -1.343370   -0.558137    1.264460
C      0.627721    1.386454    1.554501
C      0.863793    1.396409   -0.860766
C      2.013318   -0.323261    0.427697
C      1.248544   -0.090041   -0.807784
C     -0.166687    1.430834    0.277171
C     -0.109365   -0.737165   -0.805002
C     -0.948323    0.186615    0.008132
H      3.241082   -1.870632    1.328170
H      3.101064   -1.931136   -0.493305
H      4.073909   -0.641399    0.243579
H     -0.371536    3.476855    0.789022
H     -1.869889    2.529159    0.891363
H     -1.225101    3.048635   -0.761478
H      0.157985   -1.591043   -2.720896
H     -0.463957    0.066312   -2.800539
H     -1.553836   -1.320318   -2.351719
H     -2.944291    0.997616    0.077829
H     -2.780404   -0.387649   -1.014870
H     -2.060541    1.237193   -1.531964
H     -1.346108   -2.695708    1.567223
H     -2.342643   -2.082093    0.139818
H      2.143953    0.064528    2.472144
H     -0.350818   -2.871536   -0.863576
H      0.702445   -2.318422    0.482747
H     -2.315691   -0.222666    1.675419
H     -0.575728   -0.567535    2.035924
H      1.196227    2.345241    1.610824
H      0.004080    1.341926    2.463753
H      0.399808    1.648623   -1.822160
H      1.739444    2.012568   -0.634461
H      1.826289   -0.314045   -1.719830
