35

C      2.680202    0.460850    1.041171
C      3.389975   -1.199007   -0.585709
C     -0.723606    3.949831    0.501151
C     -2.750654   -2.119880    0.530574
C     -2.289220    2.035272    0.150132
C     -0.636261   -2.501112   -0.753727
C     -2.494514    0.695426   -0.103691
C      0.692047   -1.910011   -0.654128
C      0.034620    1.620059    0.049646
C      2.357812   -0.133326   -0.319863
C     -1.012640    2.496912    0.226561
C     -1.789160   -1.594356   -0.546769
C      0.973656   -0.649116   -0.403384
C     -1.444513   -0.190003   -0.282108
C     -0.134982    0.275167   -0.205144
H      3.443667   -0.172066    1.579874
H      1.802066    0.476278    1.713253
H      3.153974    1.459971    0.983185
H      4.413385   -0.777250   -0.522507
H      3.353169   -1.996335    0.205291
H      3.290103   -1.690509   -1.550277
H     -1.257756    4.592108   -0.253219
H     -1.058053    4.139874    1.530002
H      0.344838    4.136071    0.376673
H     -2.888195   -3.196992    0.290863
H     -3.702312   -1.582886    0.374425
H     -2.369652   -1.935205    1.532974
H     -3.107636    2.726799    0.289573
H     -0.709892   -3.359480   -0.036276
H     -0.686379   -3.001750   -1.766833
H     -3.540641    0.380640   -0.154346
H      1.587699   -2.539675   -0.794856
H      1.024112    2.043257    0.113781
H      2.473970    0.660511   -1.070647
H     -2.419230   -1.600068   -1.485649
