40

C     -0.673282   -4.276350   -0.008296
C      2.179764   -0.750209    0.563998
C     -3.182390    2.389597    0.336149
C     -0.483573   -2.790626    0.224608
C      1.468183   -0.308059   -0.647242
C      3.589032   -0.253179    0.462467
C     -2.566152    2.046478   -1.000706
C      0.053670   -0.631521   -0.866344
C     -1.123439    1.612811   -0.884089
C     -1.032654    0.207795   -0.323700
C      4.568878   -0.535366    1.513519
N     -0.191410   -2.012627   -0.702602
O     -4.521757    2.756074    0.094154
O     -0.649460   -2.334289    1.517042
O      1.725021    1.057419   -0.811407
O      3.996060    0.424118   -0.520924
O     -2.672246    3.218032   -1.776458
O     -0.321622    2.538866   -0.296682
O     -1.335902    0.137456    1.003199
O      5.872414   -0.087863    1.442921
O      4.206972   -1.199079    2.495996
H     -0.851842   -4.466644   -1.097461
H     -1.517981   -4.668465    0.587885
H      0.220945   -4.855661    0.264128
H      1.797633   -0.297250    1.522492
H      2.287172   -1.850639    0.677171
H     -3.164529    1.578825    1.061707
H     -2.692949    3.285125    0.786111
H      2.081632   -0.753393   -1.502964
H     -3.159646    1.243856   -1.454161
H     -0.092802   -0.489362   -2.016885
H     -0.767838    1.526459   -1.956427
H     -1.986004   -0.249685   -0.793945
H     -5.117556    2.191444    0.620663
H      0.066399   -1.881544    2.056521
H      1.683192    1.336055   -1.771721
H     -3.599185    3.540133   -1.725679
H      0.027507    3.222164   -0.926656
H     -0.637261    0.458423    1.615027
H      6.517005   -0.079318    2.238592
