34

C      3.641981   -0.396639    1.560991
C      0.194082    1.789590   -1.930009
C     -0.004974    1.975063    0.495575
C     -0.456501   -2.587985   -0.332627
C     -2.439181    0.434991    0.458914
C     -1.595000   -0.741054    0.938118
C     -1.649209   -0.651385   -1.403266
C      2.658287   -0.428193    0.464710
C     -1.770817    0.779303   -0.834489
C      0.407449   -0.229772   -0.458202
C     -0.300393    1.103061   -0.667151
C     -0.748317   -1.154257   -0.260774
O      3.076834   -0.693638   -0.702958
O      1.308674   -0.189877    0.610721
H      3.331933    0.307040    2.372210
H      3.844644   -1.417832    1.939271
H      4.603165   -0.017047    1.140180
H      0.551087    2.821325   -1.710031
H     -0.594838    1.883436   -2.691669
H      1.068012    1.223574   -2.277282
H      0.483980    1.414764    1.345294
H     -0.877437    2.483592    0.938460
H      0.730027    2.789442    0.253762
H      0.426831   -2.824446    0.269775
H     -1.308439   -3.153790    0.118283
H     -0.319478   -2.891183   -1.389222
H     -3.439026    0.014981    0.222403
H     -2.489206    1.247923    1.185008
H     -0.987600   -0.435878    1.796692
H     -2.212708   -1.600779    1.242808
H     -2.614783   -1.162251   -1.401377
H     -1.101429   -0.663672   -2.345449
H     -2.310265    1.442608   -1.490876
H      0.892613   -0.471015   -1.421484
