38

C      3.919084    0.385020    1.532103
C      2.363322    1.960557    0.368251
C     -3.893501    2.677119    0.332798
C     -1.334839   -3.112038   -1.130154
C     -2.261810    1.477218   -1.051282
C     -2.997752    0.395868    0.929669
C     -1.479072    0.395196   -1.293183
C     -2.186755   -0.687565    0.647524
C      2.502726   -0.433575   -0.381695
C      0.595619   -2.128549    0.110162
C      3.242704    0.716767    0.218196
C     -3.046223    1.482770    0.092723
C     -0.526052   -1.850184   -0.841532
C     -1.391378   -0.729019   -0.482960
C      1.420683   -0.976275    0.446253
O      1.196525   -0.400228    1.517981
H      3.720962   -0.677965    1.775573
H      3.577878    1.093447    2.317151
H      5.034144    0.547148    1.452310
H      2.653192    2.757482   -0.352844
H      1.298509    1.750152    0.213370
H      2.497805    2.427610    1.382798
H     -3.317341    3.433719    0.923335
H     -4.111472    3.138276   -0.646957
H     -4.813348    2.430163    0.903076
H     -2.284537   -2.814248   -1.599146
H     -1.469411   -3.733457   -0.220248
H     -0.772622   -3.734356   -1.840179
H     -2.271374    2.324142   -1.745713
H     -3.632369    0.433364    1.826745
H     -0.859783    0.402591   -2.201732
H     -2.154693   -1.533401    1.309644
H      2.135736   -0.070536   -1.388159
H      3.229055   -1.236973   -0.606087
H      0.151090   -2.594550    1.017884
H      1.252646   -2.905572   -0.369164
H      4.049696    0.988645   -0.500199
H     -0.037044   -1.598762   -1.830895
