50

C      2.450989    0.644134    0.529243
C      1.410903    1.547787    1.160494
C     -8.284048   -2.275190   -0.753362
C     -8.873306   -1.040652   -0.980527
C      2.916885    1.138603   -0.802370
C      0.160287    1.700735    0.364779
C     -6.926772   -2.319016   -0.599360
C     -8.060559    0.059121   -1.036779
C     -2.336132    0.854313    1.288090
C     -3.650026    0.527816    1.992606
C      4.967700   -2.146447   -2.051322
C      5.873994   -0.960828   -1.922789
C      3.894218    0.326007   -1.530241
C     -0.803840    2.610587    1.081322
C     -6.154629   -1.158775   -0.668064
C      5.205436    0.021447   -0.939531
C      6.605303   -1.349998    0.172360
N     -1.943609    2.213660    1.499499
N     -6.721657    0.020479   -0.885456
N      6.980217   -1.414365   -1.063164
N      5.237490   -0.851733    0.208714
O     -0.467761    3.949657    1.314965
O      7.398671   -1.704495    1.253252
S      3.310729   -1.357180   -1.979912
S     -4.006285   -1.208429    1.638864
S     -4.390215   -1.392528   -0.445052
H      3.310882    0.688185    1.274788
H      2.125910   -0.411097    0.524870
H      1.212973    1.129133    2.168184
H      1.844013    2.560142    1.338051
H     -8.856322   -3.187325   -0.695527
H     -9.944803   -1.009215   -1.101955
H      3.405110    2.151659   -0.609635
H      2.038504    1.448829   -1.453756
H      0.311715    2.056927   -0.658761
H     -0.345422    0.716812    0.279142
H     -6.472664   -3.290267   -0.421690
H     -8.543645    1.018339   -1.216605
H     -1.573167    0.214864    1.818237
H     -2.368358    0.524296    0.250516
H     -4.400128    1.218717    1.585492
H     -3.565868    0.728124    3.073555
H      5.124818   -2.626673   -3.036339
H      5.085925   -2.831282   -1.206524
H      6.195937   -0.491487   -2.841476
H      4.092656    0.888362   -2.511347
H      5.897756    0.841590   -0.802347
H      4.606964   -1.161665    0.933468
H     -1.223941    4.622621    1.286405
H      8.247168   -2.234300    1.187582
