47

C      5.901695    1.284190   -1.607746
C      1.588424   -3.106964    1.855887
C      5.197389   -0.054915   -1.671022
C     -5.693432    1.663113   -1.451203
C     -5.666915    0.295569   -1.277825
C     -4.811361    2.462462   -0.765846
C     -4.760801   -0.259288   -0.422711
C     -3.901368    1.881262    0.095498
C      0.319036    0.302033   -0.683134
C     -1.070134    0.604336   -0.189140
C      2.363760    0.369300    0.799212
C     -2.912159   -0.088533    1.180090
C     -0.913860   -1.439920    1.054713
C      1.108464   -1.794547    2.389292
C     -3.882093    0.528664    0.260857
C      1.161615   -0.399719    0.347031
C      0.351542   -0.822347    1.552406
C      3.236301    0.631127   -0.356762
N     -1.742877   -0.462223    0.448441
O      1.376667   -1.562069    3.568102
O      3.078123    1.575004   -1.145954
O      4.306559   -0.227936   -0.585726
H      5.339687    2.084154   -2.139066
H      6.868432    1.167772   -2.140213
H      6.095691    1.560693   -0.551950
H      2.654025   -3.264892    2.146070
H      1.488664   -3.187278    0.765249
H      0.989307   -3.938745    2.299468
H      4.696877   -0.152911   -2.635665
H      5.981047   -0.835852   -1.585266
H     -6.437154    2.070892   -2.147597
H     -6.346353   -0.350314   -1.802509
H     -4.825202    3.544501   -0.896851
H     -4.739457   -1.344789   -0.284774
H     -3.208479    2.552270    0.630405
H      0.791946    1.285354   -0.883821
H      0.282614   -0.235180   -1.653968
H     -1.073233    1.478008    0.510793
H     -1.665006    0.939809   -1.069238
H      2.037296    1.311633    1.295490
H      2.899760   -0.295445    1.528238
H     -3.418205   -0.943851    1.670646
H     -2.650876    0.683372    1.963205
H     -1.445741   -2.036262    1.822771
H     -0.623980   -2.181480    0.261287
H      1.536327   -1.347603   -0.131083
H      0.137441    0.057542    2.170497
