19

C     -0.032008   -1.608587    0.612460
C      1.337755   -1.500025    0.680260
C     -0.489039   -0.521610   -0.077375
C      1.652478   -0.337356    0.019995
C     -1.938096   -0.278184   -0.361923
C      2.992620    0.191689   -0.164854
C     -2.072070    1.136768   -0.823569
O     -2.708136   -0.507691    0.774736
O      3.242786    1.372538   -0.842107
O      3.995734   -0.418732    0.294591
O     -1.431585    1.491914   -1.843380
O     -2.878575    2.061663   -0.161280
O      0.545915    0.209059   -0.411459
H     -0.616509   -2.409879    1.031994
H      2.057661   -2.165584    1.145149
H     -2.263178   -1.000202   -1.129389
H     -2.230113   -0.086850    1.526895
H      4.104671    1.498148   -1.391943
H     -3.270311    2.872920   -0.647017
