52

C      5.010931    1.675474    0.213562
C      5.435956   -0.685530    0.695945
C     -3.649534    1.579042    1.302270
C     -3.861856    0.748772   -0.974353
C     -1.354950   -0.735222   -1.836497
C      0.206348    2.099494    0.350444
C     -1.169810    1.901570   -0.249589
C      2.400408    1.064725    0.052624
C      1.304060   -1.353803   -0.619723
C     -3.555455   -0.821742    0.950764
C     -1.324294   -1.820881    0.370687
C      4.697843    0.262019   -0.180368
C      1.011346    0.896415    0.010684
C     -2.828560   -1.996298    0.386836
C      3.240865    0.020961   -0.242393
C      0.463554   -0.301892   -0.322433
C      2.683236   -1.177993   -0.575645
C     -1.687668    0.580896    0.279340
C     -3.175424    0.495745    0.319548
C     -1.005064   -0.571268   -0.392652
O     -3.076038   -3.084191    1.256259
O      3.545195   -2.228427   -0.872601
H      4.668024    2.417494   -0.535667
H      4.652378    1.874097    1.229923
H      6.127804    1.765921    0.240916
H      6.375789   -0.185889    1.027147
H      5.754494   -1.607402    0.165943
H      4.877196   -0.916571    1.640314
H     -4.667339    1.236036    1.629857
H     -3.776447    2.546547    0.816304
H     -2.967472    1.599598    2.186545
H     -4.685728    1.517099   -0.879775
H     -3.223554    1.106325   -1.788772
H     -4.423342   -0.194905   -1.241705
H     -0.645152   -1.514825   -2.245435
H     -2.356774   -1.117358   -2.035770
H     -1.097491    0.187454   -2.413273
H      0.067878    2.074822    1.457686
H      0.690482    3.026312    0.001012
H     -1.051130    1.920333   -1.340164
H     -1.800543    2.728122    0.133411
H      2.828106    2.033367    0.321949
H      0.943067   -2.337725   -0.893552
H     -4.625719   -1.015217    0.911132
H     -3.250613   -0.739481    2.034763
H     -1.023388   -1.648691    1.432404
H     -0.875320   -2.732428   -0.041854
H      5.088040    0.126659   -1.225944
H     -3.229162   -2.289032   -0.612956
H     -1.349751    0.546247    1.359927
H     -3.514068   -3.816697    0.794753
H      3.178650   -3.138078   -1.125642
