51

C      4.746443   -0.518518   -1.134883
C      3.797373   -2.117704    0.494621
C     -2.124244    2.785090   -0.299910
C      1.644591    0.655555    2.119385
C     -1.402179   -0.323077   -1.711510
C     -4.271682   -0.220222   -0.411210
C     -3.847006    1.158870   -0.728449
C      2.612068    1.157723   -0.364881
C      0.458695   -1.561011   -0.226609
C     -3.204252   -1.257061   -0.409018
C      1.328933    1.801407    0.040133
C     -0.944191   -1.853456    0.205422
C     -0.641504    0.870671    1.357058
C      3.493265   -1.198257   -0.663442
C     -2.541020    1.574276   -0.135766
C      2.464613   -0.169377   -0.332534
C      1.076493   -0.461047    0.095763
C      0.716309    0.737677    0.883653
C     -1.793290   -0.677669   -0.312416
C     -1.831376    0.477980    0.623123
O     -2.834968    0.140433    1.585480
H      4.508201    0.262857   -1.881922
H      5.404926   -1.258953   -1.670736
H      5.287979   -0.108059   -0.251527
H      2.851937   -2.546404    0.890718
H      4.373855   -1.575820    1.256420
H      4.411009   -2.945857    0.089226
H     -2.717739    3.493526   -0.863455
H     -1.202867    3.154578    0.095571
H      1.132134    0.145561    2.956165
H      1.919937    1.669693    2.463002
H      2.562007    0.116491    1.898355
H     -1.606252    0.753646   -1.879180
H     -1.988975   -0.906111   -2.436034
H     -0.324930   -0.458742   -1.922635
H     -5.014133   -0.530669   -1.207802
H     -4.880863   -0.263041    0.535789
H     -4.606053    1.857681   -0.262834
H     -3.910581    1.401503   -1.821429
H      3.546971    1.618789   -0.650547
H      0.969643   -2.275327   -0.815927
H     -3.223586   -1.910257   -1.321115
H     -3.377224   -1.944857    0.445565
H      1.589818    2.726118    0.590163
H      0.784577    2.008022   -0.898256
H     -1.001801   -1.896801    1.294972
H     -1.317683   -2.792296   -0.232497
H     -0.779849    1.955372    1.669417
H     -0.686168    0.363352    2.379335
H      3.139032   -1.843488   -1.495037
H     -2.746393    0.727211    2.372227
