52

C      4.423636   -1.858426    1.134047
C     -3.643322    1.425982    0.128233
C     -3.333844    0.873588   -2.213705
C      4.650251    0.837030    0.186643
C     -1.370331   -0.208216    1.726866
C      3.634924   -1.356210    0.191771
C     -2.635751   -2.093605   -0.553909
C      0.469572    1.692796   -1.071934
C     -0.958879    1.812852   -0.636207
C      1.248521   -0.118614    1.619852
C     -3.573226   -0.959181   -0.551531
C     -1.304015   -1.910649    0.019756
C      2.631376    0.472129    1.489828
C      2.569963    0.522049   -1.034040
C      1.154563    0.673713   -0.625488
C      0.598885   -0.344113    0.275547
C     -1.506374    0.386389   -0.712967
C     -2.993865    0.383416   -0.792600
C      3.325380    0.092002    0.206786
C     -0.882254   -0.474952    0.317380
H      4.688382   -2.909262    1.178936
H      4.855113   -1.237960    1.925010
H     -3.000882    2.285968    0.311781
H     -4.566624    1.838950   -0.377276
H     -4.042614    0.942473    1.049770
H     -3.304940    1.988891   -2.233555
H     -2.575008    0.523952   -2.939854
H     -4.336390    0.538044   -2.516202
H      5.458745    0.257378    0.674048
H      4.978950    1.027676   -0.861272
H      4.580766    1.804966    0.752281
H     -0.742788   -0.884659    2.383452
H     -2.406340   -0.585714    1.897272
H     -1.322970    0.836885    2.021126
H      3.250627   -2.042050   -0.553549
H     -3.138174   -2.955082   -0.019142
H     -2.538175   -2.476950   -1.613056
H      0.884144    2.455007   -1.741723
H     -1.491428    2.472724   -1.319890
H     -0.973772    2.154793    0.431264
H      0.683157    0.559675    2.282064
H      1.345404   -1.091205    2.140033
H     -4.337842   -1.148840   -1.365999
H     -4.222927   -0.909190    0.372936
H     -0.499326   -2.306424   -0.667458
H     -1.145246   -2.493477    0.970234
H      2.635773    1.580687    1.625225
H      3.241645    0.068058    2.321080
H      2.714009   -0.284972   -1.782115
H      2.956713    1.473122   -1.444508
H      1.000986   -1.335444   -0.108367
H     -1.134178    0.004002   -1.711510
