47

C      5.069588    1.040926    0.183818
C      4.015467   -1.007772    0.696511
C     -5.195301   -1.091775   -0.751627
C     -4.037544    0.732947    0.187033
C      6.321955    0.419025    0.203376
C      5.259574   -1.653130    0.721347
C     -6.346533   -0.342698   -0.849734
C     -5.198252    1.491599    0.088828
C     -0.917134    0.512783   -0.223706
C      3.922773    0.335558    0.428291
C     -4.016016   -0.573635   -0.231982
C      6.396103   -0.927189    0.473975
C     -6.373249    0.985329   -0.424971
C      0.280756   -0.181998   -0.845287
C      2.601700    0.989243    0.407751
C     -2.789433   -1.405930   -0.136322
C      2.223516    1.193119   -1.016081
C     -0.763664   -0.829567   -1.683872
C     -2.574164   -1.930481    1.231323
N      2.630064    2.258167    1.125747
N      1.189906    0.659836   -1.537761
N     -1.656507   -0.665652   -0.599813
O      7.629307   -1.538635    0.493183
O     -7.517821    1.770241   -0.508568
O      3.008678    1.996762   -1.850430
O     -0.903406   -1.324820   -2.822143
O     -1.473867   -1.688001    1.786878
O     -3.528549   -2.662524    1.899409
H      5.071526    2.099974   -0.034655
H      3.153991   -1.630079    0.899347
H     -5.170743   -2.126116   -1.081100
H     -3.132046    1.191524    0.606147
H      7.236833    0.955864    0.013426
H      5.299130   -2.696716    0.932392
H     -7.272406   -0.749892   -1.258002
H     -5.213151    2.524925    0.420582
H     -0.811620    0.673443    0.865990
H     -1.178087    1.424543   -0.820658
H      0.704839   -0.934229   -0.131111
H      1.879431    0.322845    0.920908
H     -2.961687   -2.282423   -0.789529
H      2.669075    3.066461    0.459337
H      3.449768    2.301000    1.786254
H      8.011241   -1.942851   -0.364316
H     -8.155544    1.783515    0.262051
H      2.712728    2.195292   -2.819172
H     -3.551224   -2.738809    2.924016
