29

C     -2.959074    0.165425    0.571566
C     -2.200508   -1.163298    0.542857
C     -1.911978    1.233593    0.871905
C     -1.251185   -1.045639   -0.640772
C     -0.978735    1.336106   -0.330631
C      1.752849   -0.482928    0.504146
C      1.613855   -0.975931   -0.943298
C      2.698120    0.659841    0.327629
C      2.962408   -0.768280   -1.454438
C     -0.218293    0.030960   -0.402161
O      3.382236    1.011907    1.466016
O      3.468780   -1.339221   -2.445232
O      3.604293    0.164241   -0.671407
O      0.459935   -0.121474    0.792025
O      0.694757   -0.019394   -1.425042
H     -3.401997    0.293642   -0.424541
H     -3.693820    0.098381    1.369990
H     -1.608333   -1.325192    1.447225
H     -2.885571   -2.010058    0.298671
H     -2.413764    2.174536    1.101383
H     -1.326000    0.852840    1.732675
H     -0.837753   -1.996337   -0.958967
H     -1.887950   -0.670064   -1.495509
H     -0.313501    2.205956   -0.189722
H     -1.629914    1.430160   -1.223988
H      2.156878   -1.288912    1.146768
H      1.231002   -1.989310   -1.000020
H      2.136646    1.519401   -0.100285
H      3.356617    2.019049    1.533159
