50

C      0.298376    3.155615    0.672346
C      1.572455    2.246942    2.618639
C     -4.295661    1.573954   -1.386864
C     -1.967181    0.227606    1.465442
C     -2.409610    0.022700   -2.741647
C     -1.718036   -0.996335   -3.334365
C      1.110180   -2.366812    0.395638
C      0.810890   -3.107864   -2.028639
C      3.338022   -2.094352    1.518793
C      0.358968    2.044787    1.665032
C     -2.876793    1.448114   -0.868160
C      0.523938   -2.225714   -0.973845
C      2.475691   -1.789164    0.329912
C     -2.099649    0.382890   -1.411201
C     -0.728114   -1.690390   -2.676581
C     -0.416766   -1.340756   -1.359686
C      0.456787    0.648228    1.087188
C     -1.074005   -0.325056   -0.726933
C      1.642330    0.521299    0.230813
N      0.023277   -2.741598   -3.044963
N      2.380933   -0.435390   -0.025728
N     -0.798519    0.194642    0.585474
O      2.914649   -1.476946    2.682432
O     -2.556366    2.268878   -0.042237
O      2.005814    1.735609   -0.425891
H      0.035250    2.830016   -0.345833
H     -0.495989    3.923641    0.925597
H      1.239239    3.781002    0.674510
H      1.579588    1.335869    3.251182
H      1.355447    3.115496    3.253967
H      2.500149    2.331302    2.039554
H     -4.711609    0.553668   -1.580455
H     -4.193395    2.061158   -2.373403
H     -4.926355    2.189061   -0.750847
H     -1.998007    1.003657    2.211323
H     -2.918417   -0.060089    1.019703
H     -1.766417   -0.702843    2.116312
H     -3.188023    0.547098   -3.290950
H     -1.993359   -1.236683   -4.371061
H      1.197395   -3.478100    0.622127
H      0.438180   -2.006111    1.170366
H      1.512723   -3.901206   -2.013209
H      4.369241   -1.780153    1.268371
H      3.362210   -3.194117    1.648513
H     -0.492626    2.190506    2.353430
H      2.984465   -2.318566   -0.537316
H      0.687273    0.024412    2.016709
H      0.011511   -3.220747   -3.984187
H      3.562443   -1.723427    3.389727
H      2.877473    1.854270   -0.919097
