123

C     -4.431639    1.578741    0.519204
C     -3.534927    0.125506   -1.221050
C      5.757966   -4.704485    0.586752
C      8.189193   -4.329791    0.192089
C      2.767889   -1.395052   -0.164179
C      2.189574    1.853790    1.745650
C      6.793936    0.202427    0.918711
C      6.376627   -2.241469   -0.982397
C     -3.395588   -0.841088    2.424992
C      5.732497   -0.852139   -0.975800
C     -1.919036   -0.729031    2.495016
C      2.417561   -0.736717    2.135472
C      0.961918   -0.927309    2.105415
C      0.032809    2.005128    0.306221
C      3.021801    1.637406   -0.521362
C     -0.783801    6.673256   -0.655903
C     -6.124645   -4.559511    0.778996
C     -0.846231   -1.289087    0.273589
C      4.392479    1.553192    0.180009
C     -6.279159   -5.183787   -0.580625
C     -1.378852    1.736085   -0.321983
C     -1.811390    5.838165   -1.434580
C      0.777240    0.685049    0.166975
C     -3.918956   -0.793688    0.983015
C      6.731301   -2.398036    0.461562
C     -5.290926   -4.551839   -1.505719
C     -3.033884    5.723180   -0.576718
C     -4.116034    4.944921   -1.321561
C     -5.227764   -3.045780   -1.273288
C     -3.490092    3.789319   -2.072649
C      4.378501    0.221794    0.880433
C     -2.064236    0.886807    0.677322
C     -4.887009   -2.722997    0.153167
C     -2.092796    3.515713   -1.654908
C     -3.450017    0.428915    0.246231
C      6.950254   -3.823800    0.877520
C      3.020319   -0.294406    0.792609
C      2.195473    0.972493    0.512967
C      5.544552   -0.589296    0.483681
C      0.142548   -0.362083    1.019525
C     -1.289568   -0.272003    1.204354
O     -1.349519    7.905937   -0.424458
O      5.331843    1.694774   -0.798814
O     -7.596738   -5.047155   -0.976861
O     -4.031236   -5.125054   -1.340503
O     -3.452906    6.997045   -0.228400
O     -5.167604    4.569084   -0.498556
O     -6.527242   -2.587524   -1.606722
O     -3.530746    4.124602   -3.453102
O      7.179407   -3.842444    2.252394
O     -4.918198   -3.894998    0.922577
O     -2.017997    2.976177   -0.401597
O     -1.254457    4.627915   -1.661679
O     -3.750587   -1.993505    0.353039
O      5.640101   -1.814428    1.103301
H     -5.197936    1.655507   -0.263973
H     -5.005152    1.253659    1.442038
H     -3.921116    2.506269    0.779867
H     -4.619783    0.167838   -1.496182
H     -3.023331    0.840353   -1.881482
H     -3.094578   -0.864760   -1.470692
H      5.922362   -5.663126    1.120562
H      4.862474   -4.235284    1.005817
H      5.675115   -4.953305   -0.483648
H      7.919569   -4.679716   -0.838742
H      8.697876   -5.140199    0.754122
H      8.926417   -3.504761    0.094702
H      3.640680   -2.107264   -0.067733
H      1.920477   -2.059828    0.180332
H      2.535633   -1.119014   -1.186673
H      1.979762    2.904808    1.398396
H      3.134715    1.892803    2.281014
H      1.371926    1.608421    2.450306
H      7.574912    0.212741    0.158088
H      6.543532    1.258248    1.149487
H      7.199021   -0.216086    1.877413
H      7.223577   -2.318056   -1.667923
H      5.553024   -2.960288   -1.234806
H     -3.893311   -0.005649    2.978161
H     -3.768615   -1.792270    2.851240
H      6.525534   -0.193733   -1.444377
H      4.867065   -0.764463   -1.613944
H     -1.614885   -0.038352    3.316463
H     -1.469003   -1.717892    2.743773
H      2.757799   -0.023625    2.943740
H      2.932285   -1.690556    2.377649
H      0.720938   -2.032676    2.162297
H      0.541001   -0.545685    3.084968
H      0.573409    2.748832   -0.278885
H     -0.197790    2.274632    1.345558
H      3.132406    1.006417   -1.429669
H      2.758173    2.680456   -0.735651
H      0.143441    6.760266   -1.249271
H     -0.607223    6.126744    0.299323
H     -6.156360   -5.369198    1.535373
H     -7.001828   -3.896749    1.018861
H     -0.774566   -2.356138    0.632398
H     -0.840371   -1.238543   -0.820639
H      4.489260    2.424726    0.862063
H     -6.073548   -6.288584   -0.514274
H     -1.108025    1.298232   -1.284216
H     -2.027203    6.325994   -2.414504
H      0.724308    0.407035   -0.903985
H     -5.032562   -0.657603    1.155058
H      7.671571   -1.848201    0.642475
H     -5.666923   -4.679979   -2.545824
H     -2.750894    5.187025    0.348457
H     -4.534078    5.648525   -2.063729
H     -4.571279   -2.589756   -2.017910
H     -4.161230    2.918997   -1.991258
H      4.559752    0.472588    1.975261
H     -2.258816    1.552736    1.572791
H     -5.754928   -2.122172    0.557759
H     -1.648286    2.793012   -2.413162
H     -1.032098    8.284604    0.433602
H      5.042090    2.329118   -1.483186
H     -8.158642   -5.824404   -0.731878
H     -4.064154   -5.734798   -0.576337
H     -4.061026    7.408928   -0.889728
H     -6.042787    4.900054   -0.819988
H     -6.946930   -3.183379   -2.281279
H     -2.728479    3.775841   -3.897962
H      8.125625   -3.528235    2.367465
