78

C    -10.315610    1.731820    1.173706
C      7.357658    2.511483   -2.441083
C     -8.876854    1.637672    0.727823
C     -8.598795    0.340490   -0.004505
C     -7.133554    0.360250   -0.401163
C     -6.728532   -0.873333   -1.137020
C     -5.259887   -0.785112   -1.507627
C     -4.355328   -0.656737   -0.333029
C     -2.924097   -0.598269   -0.781468
C     -2.582150    0.542958   -1.681022
C     -1.141590    0.562796   -2.088405
C     -0.266992    0.662510   -0.843059
C     -0.529907    1.884243   -0.055858
C      0.330284    2.035229    1.132947
C      0.252288    1.098944    2.247978
C      0.530896   -0.329154    2.119655
C      1.883042   -0.726195    1.584914
C      3.014839   -0.251831    2.395906
C      4.374842   -0.632917    1.801415
C      4.472867   -2.101262    1.726589
C      5.710598   -2.760170    1.294312
C      6.308003   -2.579837   -0.026521
C      6.771484   -1.219968   -0.376872
C      7.427889   -1.261710   -1.794854
C      7.872339    0.120475   -2.095485
O      8.500837   -2.125662   -1.792605
O      9.079318    0.350740   -2.299974
O      6.982926    1.177219   -2.157912
H    -10.527319    2.820853    1.339261
H    -10.463001    1.157763    2.089990
H    -10.945709    1.369532    0.319545
H      6.684529    3.157847   -1.833075
H      7.093884    2.734578   -3.511761
H      8.416049    2.698482   -2.232159
H     -8.610137    2.466751    0.028273
H     -8.163363    1.691018    1.577025
H     -9.192057    0.289244   -0.951075
H     -8.770433   -0.544856    0.622153
H     -6.843384    1.254835   -0.958426
H     -6.567325    0.380485    0.575203
H     -7.280953   -0.864372   -2.119974
H     -6.957885   -1.801566   -0.611512
H     -4.926547   -1.643127   -2.125195
H     -5.125355    0.130624   -2.134720
H     -4.420145   -1.549126    0.355123
H     -4.577043    0.275516    0.229772
H     -2.310630   -0.555283    0.165252
H     -2.602650   -1.549249   -1.264272
H     -3.245855    0.538234   -2.604213
H     -2.825688    1.504510   -1.192833
H     -0.960484    1.487929   -2.668465
H     -0.820035   -0.353056   -2.612169
H     -0.347457   -0.291448   -0.354173
H      0.783588    0.783588   -1.268915
H     -1.603402    1.848821    0.341877
H     -0.445775    2.781478   -0.728706
H      0.178535    3.119104    1.477217
H      1.411839    2.011467    0.717676
H     -0.831595    1.149804    2.653025
H      0.787654    1.526926    3.184162
H     -0.276029   -0.914036    1.690209
H      0.516403   -0.714471    3.230231
H      1.842449   -1.859344    1.579822
H      2.001077   -0.429339    0.530371
H      3.038662   -0.610443    3.437559
H      3.023433    0.869333    2.416818
H      4.351670   -0.098802    0.810938
H      5.126577   -0.150745    2.462382
H      3.587160   -2.449175    1.108745
H      4.214471   -2.488967    2.768154
H      6.529218   -2.625665    2.104742
H      5.500801   -3.892940    1.417538
H      5.613688   -2.934073   -0.849247
H      7.191483   -3.296299   -0.151404
H      7.569726   -0.828567    0.281436
H      5.996592   -0.449928   -0.507556
H      6.683275   -1.629549   -2.529680
H      9.340677   -1.638971   -1.577194
