50

C     -1.092847   -2.855664   -1.063071
C      0.081838   -3.421643    1.064325
C     -3.617700   -0.489985   -0.737263
C     -1.448737   -0.870392    1.784465
C     -2.638401    2.683860   -0.120496
C     -1.723091    3.674390   -0.262275
C      2.307922    1.145957    0.930714
C      1.752296    3.509561    0.212086
C      3.877259   -0.607872   -0.002339
C      0.020927   -2.530693   -0.163838
C     -3.304312    0.442768    0.363336
C      1.347701    2.185674    0.468562
C      2.866679    0.472470   -0.267660
C     -2.220855    1.387253    0.233978
C     -0.380518    3.393588   -0.051494
C      0.022578    2.117800    0.297671
C      0.400063   -1.100133    0.078009
C     -0.875002    1.095663    0.443203
C      0.814919   -0.488597   -1.192381
N      0.687603    4.241160   -0.105550
N      1.895406    0.177261   -1.265163
N     -0.615251   -0.272268    0.736540
O      4.548344   -0.807213   -1.235413
O     -3.995881    0.405845    1.399285
O     -0.000489   -0.653599   -2.311131
H     -0.857832   -3.743190   -1.745280
H     -1.914384   -3.304199   -0.413249
H     -1.484382   -2.103417   -1.728044
H      0.418822   -4.457616    0.715285
H     -0.907447   -3.635365    1.507096
H      0.862390   -3.121342    1.760894
H     -3.545113   -1.548855   -0.475986
H     -4.639650   -0.254369   -1.171878
H     -2.927753   -0.275443   -1.590154
H     -0.691778   -1.485648    2.372048
H     -2.160093   -1.603033    1.449142
H     -1.764667   -0.160503    2.574301
H     -3.674897    2.929676   -0.287783
H     -2.008101    4.706714   -0.542098
H      1.925095    0.555270    1.754684
H      3.233351    1.644496    1.426997
H      2.746771    3.938456    0.244891
H      3.498360   -1.580968    0.273458
H      4.625470   -0.189111    0.699036
H      0.965922   -2.910739   -0.755257
H      3.515064    1.300017   -0.767771
H      1.264716   -1.200122    0.793699
H      0.625484    5.250813   -0.352088
H      3.947880   -1.377691   -1.777609
H      0.236317   -0.209023   -3.198432
