29

C      3.118304   -0.847760    0.004571
C      1.864369   -1.715438    0.037567
C      2.620858    0.592337   -0.101550
C      0.751147   -1.077793   -0.783255
C      1.387813    0.662062    0.809692
C     -1.881734   -0.198589   -0.113663
C     -1.583728    1.202886   -0.669550
C     -3.191702    0.059651    0.570543
C     -1.990251    2.023203    0.513536
C      0.244506    0.111070    0.015210
O     -4.158935    0.154082   -0.450677
O     -1.526877    3.127687    0.898251
O     -3.015033    1.320977    1.141773
O     -0.818305   -0.321446    0.772469
O     -0.220019    1.133800   -0.817450
H      3.701028   -1.125082   -0.873540
H      3.688792   -0.914749    0.957505
H      1.474221   -1.792028    1.081167
H      2.037119   -2.728211   -0.326998
H      3.377642    1.325926    0.164349
H      2.291521    0.787149   -1.152791
H      1.080093   -0.778923   -1.783794
H     -0.050141   -1.864757   -0.848707
H      1.598492    0.133817    1.742632
H      1.187620    1.729335    1.069748
H     -1.910770   -0.954726   -0.892964
H     -2.150405    1.423794   -1.566546
H     -3.437830   -0.739392    1.284861
H     -4.487794   -0.728881   -0.682387
