80

C      6.468471   -1.710294    0.597459
C      3.364314    1.706559   -1.826309
C     -5.830164   -1.053215    2.098302
C     -6.487665    0.647582    0.498168
C     -4.155609    1.525719   -1.217131
C      0.557631    2.040971    0.262539
C     -0.017565   -1.694177   -0.284587
C      5.641494    1.161882   -0.203424
C      6.976788    0.654837    0.063497
C      4.483029    0.268735   -0.212793
C     -2.075283    0.192267    1.720859
C     -3.517560    0.601748    1.664789
C      2.152239   -0.341791    1.141859
C     -1.431272    0.610841   -1.734191
C     -5.491674   -1.267085   -1.668368
C     -4.026040   -0.896046   -1.781900
C      0.741861   -0.388519    1.666903
C      0.046817    0.753582   -1.734742
C      8.870105   -0.766199    0.612994
C      7.372026   -0.546901    0.402882
C      3.175818    1.085110   -0.499910
C      2.061196    0.127369   -0.326662
C     -2.165691    0.287668   -0.698421
C     -1.449687    0.047588    0.563441
C     -4.122367   -0.251890    0.573327
C     -5.892741   -1.652996   -0.284923
C     -5.576278   -0.507298    0.685349
C     -3.662419    0.183625   -0.781844
C      0.673071    0.698432   -0.388892
C     -0.062089   -0.359942    0.409480
O      9.148731   -1.185433    1.888891
O     -7.216426   -2.011354   -0.255538
H      5.790346   -1.927279   -0.211736
H      5.981384   -1.589807    1.599439
H      7.149644   -2.600397    0.773878
H      3.717847    2.766628   -1.657259
H      4.205543    1.227543   -2.416640
H      2.522233    1.725329   -2.509748
H     -6.735601   -1.662514    2.112421
H     -4.930714   -1.542445    2.501476
H     -6.014155   -0.164744    2.769954
H     -7.502214    0.324126    0.881874
H     -6.658285    0.971465   -0.527315
H     -6.177725    1.447973    1.198341
H     -4.573593    2.153844   -0.434815
H     -4.871517    1.360023   -2.075137
H     -3.332648    2.139058   -1.692399
H      1.031782    2.802518   -0.368121
H      0.967512    2.095351    1.275831
H     -0.542373    2.262047    0.353327
H      0.372395   -1.596275   -1.313706
H     -1.026809   -2.152033   -0.367130
H      0.621309   -2.430929    0.242773
H      5.676081    1.812318   -1.156355
H      5.466002    1.974395    0.593731
H      7.837075    1.395689   -0.027734
H      4.359626   -0.292350    0.692704
H      4.532970   -0.365813   -1.149112
H     -1.529527    0.012507    2.626558
H     -3.527013    1.674898    1.435422
H     -4.022478    0.423112    2.612886
H      2.702349    0.393229    1.763844
H      2.630627   -1.340778    1.120634
H     -1.932175    0.791579   -2.674319
H     -6.159531   -0.504650   -2.093649
H     -5.621207   -2.181327   -2.315211
H     -3.446888   -1.799343   -1.519325
H     -3.840052   -0.547518   -2.810147
H      0.587729   -1.369342    2.161236
H      0.493389    0.415970    2.359661
H      0.199105    1.801737   -2.147331
H      0.524338    0.064062   -2.483312
H      9.453704    0.079687    0.240392
H      9.128018   -1.627553   -0.072572
H      3.090848    1.859919    0.307862
H      2.184305   -0.712137   -1.009983
H     -3.643118   -1.273209    0.719342
H     -5.288220   -2.515325    0.063101
H      9.427438   -0.468249    2.494845
H     -7.830815   -1.272364   -0.465234
