27

C      4.302952    0.825724   -0.598766
C     -3.658399    0.330606    1.392988
C      2.833927    0.785192   -0.221927
C      2.500847   -0.668655    0.040530
C      1.059562   -0.754556    0.420246
C      0.110323   -0.245230   -0.644724
C     -3.624955   -0.351044    0.042852
C     -2.352567   -0.105293   -0.676172
O     -4.692349    0.051418   -0.761687
O     -2.265744    0.387240   -1.825232
O     -1.171388   -0.426739   -0.073022
H      4.819624    0.089515    0.052861
H      4.657735    1.859350   -0.431533
H      4.379673    0.572579   -1.662180
H     -3.388263   -0.374144    2.225240
H     -4.686397    0.720294    1.570828
H     -2.888027    1.125271    1.418524
H      2.623485    1.417329    0.649320
H      2.270520    1.164199   -1.119154
H      2.761829   -1.325893   -0.784510
H      3.120790   -0.961530    0.925371
H      0.818096   -0.207685    1.353974
H      0.824673   -1.821813    0.627767
H      0.235118   -0.798208   -1.597867
H      0.290361    0.840990   -0.835184
H     -3.777277   -1.440642    0.233553
H     -5.104147   -0.688275   -1.261328
