39

C     -2.944470    1.198154    1.313792
C     -3.660487   -1.011169    0.315282
C      2.262147    3.380856   -0.617837
C      0.527978   -2.229936    1.050290
C      2.316073   -0.231517    0.628285
C      2.623744    1.154426    0.336670
C      2.287113   -1.207798   -0.496626
C      0.587991    1.430695   -0.932990
C     -1.266941   -1.319293   -0.947095
C     -2.611655    0.021359    0.460010
C      1.836798    1.931189   -0.373518
C     -1.401272   -0.082247   -0.145640
C     -0.419467    0.962136    0.039194
C      0.100251   -1.663279   -1.401112
C      0.970539   -1.967395   -0.366058
O     -0.380016    1.585559    1.161144
O      0.607111   -2.960278   -1.224691
H     -2.380228    1.128572    2.246840
H     -4.039927    1.282757    1.472147
H     -2.599320    2.119681    0.780168
H     -4.651656   -0.557500    0.459030
H     -3.602804   -1.405206   -0.725417
H     -3.523023   -1.832385    1.048310
H      2.909863    3.724664    0.212258
H      1.317181    3.960833   -0.547735
H      2.725694    3.474591   -1.603695
H     -0.189318   -1.525062    1.462421
H      1.407599   -2.326441    1.738722
H      0.027046   -3.242374    1.160533
H      1.448460   -0.355578    1.347693
H      3.170813   -0.602067    1.298142
H      3.561831    1.639625    0.707520
H      3.061855   -2.032195   -0.405734
H      2.461694   -0.800469   -1.496618
H      0.093103    2.346523   -1.430141
H      0.716198    0.776538   -1.816923
H     -1.922828   -1.214330   -1.855459
H     -1.750777   -2.188595   -0.395993
H      0.323108   -1.363042   -2.455167
