36

C      4.339346    0.496150    0.807650
C     -0.904626    1.890101   -1.478360
C     -0.929609    1.996067    0.957312
C     -0.266230   -2.183331   -1.245327
C      2.450499    0.966853   -0.767588
C      1.236414    0.538207   -0.580448
C     -2.301674    0.300634   -0.278224
C     -1.170192   -1.605260    0.950150
C      3.179431    1.343139    0.417386
C     -2.409652   -0.865674    0.627177
C      0.063329    0.054364   -0.251157
C     -0.979969    1.051522   -0.195581
C     -0.010628   -1.375507    0.005108
O      2.907226    2.318194    1.128706
O     -3.410871   -1.724390    0.115685
O      1.135761   -1.866067    0.670135
H      5.305327    0.961189    0.515137
H      4.309013   -0.504773    0.296547
H      4.345954    0.268797    1.892255
H     -0.092375    2.617632   -1.332576
H     -0.612048    1.181032   -2.304692
H     -1.856504    2.378108   -1.696173
H      0.096724    2.253929    1.225803
H     -1.420372    2.960717    0.637390
H     -1.536432    1.609155    1.784178
H     -1.309709   -2.541313   -1.294560
H     -0.101889   -1.524264   -2.121757
H      0.402325   -3.059754   -1.238050
H      2.734473    0.979068   -1.771420
H     -2.388385   -0.040605   -1.337351
H     -3.129883    1.001455   -0.062766
H     -1.397113   -2.709790    0.880449
H     -0.820699   -1.399596    1.991425
H     -2.847626   -0.495451    1.600966
H     -3.652664   -2.418837    0.787596
H      1.043328   -2.851701    0.664976
