47

C     -2.940550   -2.238618    1.364884
C      4.854542    0.840259   -1.315323
C      0.368434    1.767929   -1.689084
C     -0.459715    2.635793    0.427348
C      2.029041   -1.495855    0.884449
C     -3.507645   -0.123841    0.131359
C     -2.662676    1.097105   -0.263245
C      0.561165   -1.429164   -1.031603
C     -0.681747   -1.833334   -0.268698
C     -0.231769   -0.102804    1.449657
C     -2.560032   -0.832411    1.067125
C      3.686957    0.460130   -0.460746
C     -1.343807    0.490663   -0.530871
C      0.776719    0.550541    0.491893
C     -0.161366    1.362733   -0.362967
C      1.482836   -0.551859   -0.202727
C     -1.228866   -0.639758    0.454516
O      3.766522    0.764096    0.755731
O      2.577761   -0.192877   -0.987030
H     -2.515431   -2.494508    2.380212
H     -2.533182   -2.990787    0.677837
H     -4.040490   -2.324724    1.494256
H      5.620545    0.036449   -1.151920
H      5.302056    1.774817   -0.917418
H      4.563000    0.929814   -2.379442
H      1.442885    1.662300   -1.837660
H     -0.182254    1.238466   -2.523264
H      0.143017    2.856808   -1.898488
H     -0.917642    3.413230   -0.205889
H     -0.975960    2.453220    1.365278
H      0.558361    3.043191    0.702272
H      2.227720   -0.971509    1.819532
H      3.004848   -1.950806    0.545220
H      1.359036   -2.346604    1.059770
H     -4.453624    0.182411    0.616665
H     -3.688579   -0.750143   -0.760173
H     -3.138768    1.514883   -1.182966
H     -2.731352    1.794778    0.564584
H      1.138287   -2.390003   -1.185201
H      0.364328   -1.042079   -2.029535
H     -1.443375   -2.099990   -1.058784
H     -0.517413   -2.713948    0.352353
H      0.195812   -0.952648    1.985252
H     -0.654920    0.604409    2.157710
H     -2.584385   -0.246188    2.032207
H     -1.361759    0.080573   -1.583059
H      1.493434    1.159859    1.045983
