82

C      5.193273   -1.284031    1.814048
C      6.107525   -0.959641   -0.422301
C     -5.381357    1.495064   -1.073288
C     -3.970986   -1.902398   -0.936024
C      1.863209    0.722684   -2.316088
C     -0.706071   -1.525768   -1.760422
C     -0.891382    0.613211    1.402399
C      3.298877   -1.698314   -0.392478
C      3.879446    1.731910   -0.899369
C      1.933982   -1.812254   -0.986155
C      5.116907    2.009979   -0.083453
C     -5.354955   -0.320604    0.665808
C     -4.190982   -1.035527    1.282011
C     -2.172369   -2.257724    0.696240
C      0.787554    1.744533   -0.418713
C     -0.727182   -1.954882    0.624939
C     -0.674959    1.501672   -0.823673
C     -3.388992    1.218814    0.419257
C     -5.508472    2.023570    1.296113
C      3.737208   -0.512452   -0.041523
C      3.003354    0.768650   -0.173404
C      1.110634   -0.712463   -0.365873
C     -2.624622    0.055441   -0.226564
C      5.415889    0.995539    0.963465
C      5.107863   -0.425633    0.549735
C     -4.885483    1.049478    0.284760
C     -3.127723   -1.264332    0.189440
C      1.646494    0.590746   -0.824972
C     -0.358999   -0.927937   -0.450027
C     -1.149865    0.289510   -0.070099
O     -6.908079    1.956763    1.221517
O      6.791860    1.041398    1.244911
H      4.968631   -2.347907    1.585046
H      4.507245   -0.852894    2.568021
H      6.223252   -1.152035    2.195561
H      5.602666   -1.688960   -1.121286
H      6.561990   -0.189773   -1.067898
H      6.893660   -1.579056    0.088480
H     -4.484783    1.728639   -1.701415
H     -5.966100    0.666197   -1.567207
H     -6.000752    2.393542   -1.044594
H     -4.787407   -2.547566   -0.493931
H     -4.348716   -1.154677   -1.632218
H     -3.368822   -2.625233   -1.528165
H      2.679645    0.124018   -2.713459
H      0.918314    0.680379   -2.899123
H      2.202779    1.796203   -2.453792
H     -0.978520   -2.622368   -1.679823
H     -1.557699   -1.041824   -2.292938
H      0.116993   -1.537576   -2.515578
H     -1.494050    0.017823    2.085545
H      0.151893    0.520698    1.697789
H     -1.148987    1.705989    1.537424
H      3.883229   -2.586852   -0.269042
H      3.385529    2.725596   -1.069763
H      4.223976    1.293313   -1.870038
H      1.504274   -2.822347   -0.835643
H      2.087590   -1.709263   -2.079404
H      6.021200    2.071558   -0.753804
H      5.067690    3.014444    0.404259
H     -6.171941   -0.297801    1.443031
H     -5.786636   -0.795906   -0.210903
H     -4.543478   -2.064859    1.557003
H     -3.833226   -0.464921    2.126720
H     -2.318392   -3.254663    0.175148
H     -2.382853   -2.531521    1.776507
H      1.097347    2.629264   -1.050320
H      0.889985    2.072544    0.610751
H     -0.111108   -2.863537    0.398880
H     -0.310576   -1.555069    1.571974
H     -1.191377    2.412276   -0.457254
H     -0.722170    1.387557   -1.914482
H     -3.169430    2.131292   -0.204838
H     -3.154682    1.344405    1.475793
H     -5.139026    3.046177    1.114808
H     -5.225040    1.748600    2.332670
H      2.839695    1.151214    0.857651
H      1.376309   -0.778653    0.736620
H     -2.845068    0.193502   -1.327772
H      4.889964    1.258059    1.893288
H     -7.294322    1.440202    1.982381
H      7.269711    0.296770    0.803582
