36

C      2.610116   -0.050048   -1.867601
C     -1.575783    2.837640   -0.182810
C     -0.515381    1.970235   -0.338313
C     -2.864012    2.428978    0.152401
C      1.509444    0.182184    0.281109
C     -1.483841   -2.152264    0.296129
C     -3.809806   -0.980689    0.710011
C      3.820057    0.943769    0.161495
C      2.591722    0.350994   -0.435521
C     -2.457668   -1.066696    0.409546
C     -0.801539    0.612646   -0.137128
C      0.242333   -0.411766   -0.273048
C     -0.077584   -1.705549    0.376651
C     -3.132465    1.088485    0.347851
C     -2.072519    0.227892    0.191770
N      0.770416   -2.789883   -0.134893
N     -4.200414    0.324895    0.668481
O      3.632061    1.257750    1.492878
H      1.931873    0.570476   -2.484470
H      3.629162    0.075588   -2.304066
H      2.307896   -1.098782   -1.981815
H     -1.354830    3.895450   -0.339113
H      0.477865    2.276976   -0.595928
H     -3.658521    3.125524    0.264237
H      1.533936    0.490817    1.336444
H     -1.646348   -2.966179    1.048702
H     -1.655698   -2.661730   -0.696893
H     -4.431721   -1.829880    0.937268
H      4.687092    0.259809    0.031469
H      4.022458    1.891169   -0.398612
H      0.433488   -0.587874   -1.353507
H      0.199460   -1.622294    1.466809
H      0.554047   -3.661310    0.388979
H      1.774647   -2.576042    0.047749
H     -5.155129    0.712764    0.847840
H      4.165183    0.636945    2.065898
