42

C      4.524346    1.906344   -0.112065
C      3.615203    0.770915   -0.607561
C     -2.514245   -3.065168    0.710865
C     -3.021635    3.201112   -0.562062
C     -1.180755   -3.409117    0.648292
C     -1.707140    2.872529   -0.487327
C     -2.917841   -1.744105    0.486772
C     -3.993653    2.282882   -0.352156
C      1.156125   -2.882846    0.298941
C      2.658895    0.492885    0.541958
C      2.193800   -1.803317    0.252108
C      0.044211    1.199203    0.007239
C     -0.228703   -2.448292    0.361055
C     -1.371095    1.534669   -0.181534
C     -1.956434   -0.804877    0.203862
C      0.444540   -0.205200   -0.211681
C     -3.693175    0.946940   -0.049287
C     -0.608618   -1.152938    0.139153
C     -2.365454    0.593923    0.029146
N      1.712089   -0.503345    0.342423
O     -4.712093    0.059910    0.151732
H      5.512144    1.516925    0.215505
H      4.617895    2.694261   -0.888797
H      4.090964    2.416550    0.780600
H      3.093858    1.059858   -1.538817
H      4.276367   -0.093374   -0.761694
H     -3.238535   -3.836600    0.937075
H     -3.293783    4.231886   -0.799687
H     -0.896960   -4.449798    0.832922
H     -0.893501    3.543036   -0.640727
H     -3.968486   -1.599565    0.566667
H     -5.034970    2.564125   -0.414484
H      1.339381   -3.564298    1.166727
H      1.239323   -3.566365   -0.594043
H      2.269584    1.491748    0.843537
H      3.349450    0.224058    1.399766
H      2.949929   -2.001347    1.029297
H      2.732112   -1.910132   -0.726421
H      0.246246    1.486026    1.102345
H      0.623594    1.921785   -0.640113
H      0.576203   -0.317391   -1.341789
H     -5.669181    0.346507    0.092503
