42

C      3.899156   -1.902400    1.569340
C      2.622951   -2.556483    1.134561
C     -1.095680    3.181122    1.507703
C     -3.937595   -1.001976   -2.452794
C      0.205448    2.812518    1.676331
C     -2.662623   -1.412005   -2.160976
C     -1.940695    2.442910    0.677817
C     -4.401677    0.175085   -1.880098
C      2.143916    1.334160    1.237296
C      2.004902   -1.976685   -0.098278
C      2.592670    0.384842    0.119943
C     -0.512461   -1.211572   -0.948623
C      0.722589    1.695613    1.026231
C     -1.845985   -0.661317   -1.304515
C     -1.441914    1.349030    0.040024
C      0.455794   -0.160908   -0.571545
C     -3.620994    0.933702   -1.036723
C     -0.092986    0.966930    0.211233
C     -2.323293    0.491754   -0.757602
N      1.637456   -0.645129    0.041970
O     -4.197482    2.069160   -0.543191
H      3.763376   -1.004199    2.170909
H      4.670133   -1.837770    0.768083
H      4.371407   -2.643061    2.304247
H      2.843278   -3.648150    1.017155
H      1.912856   -2.418416    2.013986
H     -1.471083    4.060975    2.030468
H     -4.581705   -1.583659   -3.121735
H      0.874594    3.372176    2.316769
H     -2.246014   -2.331008   -2.583922
H     -2.931001    2.779639    0.598905
H     -5.404990    0.507062   -2.102885
H      2.293706    0.846574    2.226509
H      2.734167    2.272553    1.223068
H      2.806942   -2.128059   -0.909012
H      1.188765   -2.674430   -0.404352
H      3.643238    0.148288    0.146911
H      2.454891    1.007279   -0.837502
H     -0.656293   -1.990898   -0.155117
H     -0.130939   -1.731407   -1.871978
H      0.780212    0.308504   -1.577223
H     -5.127035    2.379656   -0.741390
