22

C      0.248052   -1.143188   -0.502736
C      2.149397    0.155688    0.342199
C      0.836847    0.240939   -0.447052
C     -1.238784   -0.986747   -0.314084
C     -0.163706    1.082028    0.295898
C     -1.503025    0.465330   -0.045514
O      3.030970   -0.699856   -0.270718
O     -1.693287   -1.802239    0.742117
O     -0.124309    2.397732   -0.139045
O     -2.078684    1.107623   -1.158634
H      0.651475   -1.754088    0.353477
H      0.516252   -1.690590   -1.420667
H      2.588978    1.170971    0.387464
H      1.930018   -0.153959    1.370691
H      1.003601    0.645628   -1.452671
H     -1.793439   -1.342701   -1.220832
H      0.056881    1.039802    1.381049
H     -2.208502    0.555387    0.788965
H      3.671335   -1.132191    0.329821
H     -2.569955   -1.489590    1.059548
H     -0.771510    2.923345    0.368971
H     -2.538603    0.410675   -1.664401
