32

C     -3.619867    1.875390    0.358788
C     -2.456198   -2.193077   -0.179944
C     -3.118399    0.630069   -0.337287
C      1.139595    0.161557    1.527989
C      2.233477    1.007538    1.585340
C     -0.195641   -1.579427    0.403353
C      1.897029   -0.665130   -0.542346
C      5.100802    1.102326   -0.616009
C     -1.421492   -1.057295   -0.265510
C      0.954794   -0.688485    0.462019
C      3.160456    1.011374    0.569245
C      3.001350    0.179378   -0.498259
N     -1.987044    0.092232    0.281742
O      4.342104    1.762592    0.388302
O      4.096326    0.419084   -1.346222
H     -4.702547    2.016919    0.155715
H     -3.485616    1.730353    1.449677
H     -3.010685    2.735045    0.062386
H     -1.937865   -3.078737   -0.646686
H     -2.598306   -2.395675    0.895041
H     -3.361912   -1.981451   -0.745686
H     -3.969270   -0.095724   -0.312947
H     -2.873633    0.905381   -1.388783
H      0.407834    0.169944    2.351353
H      2.351551    1.667079    2.440147
H     -0.433795   -1.878851    1.466454
H      0.059403   -2.554913   -0.091341
H      1.788879   -1.313640   -1.394026
H      5.537950    1.862431   -1.260849
H      5.803542    0.404309   -0.143768
H     -1.245397   -0.909657   -1.353690
H     -1.457427    0.659059    0.941333
