32

C     -3.667050    1.525655    0.067744
C     -2.855004   -1.355813   -0.477263
C     -2.248434    1.488478    0.527777
C      1.542047   -1.654572    0.736833
C      2.784243   -1.249251    1.180330
C     -0.439413   -1.512461   -0.741822
C      1.548276    0.023058   -0.922770
C      4.707259    1.580408   -0.044499
C     -1.565481   -0.789497    0.014075
C      0.897598   -1.028122   -0.323274
C      3.402996   -0.174485    0.535441
C      2.802136    0.461677   -0.504189
N     -1.374456    0.604857   -0.154360
O      4.623734    0.439114    0.757899
O      3.631495    1.475025   -0.945693
H     -4.342880    0.848614    0.623434
H     -3.722645    1.401574   -1.043141
H     -4.132834    2.549055    0.231596
H     -3.650908   -1.400865    0.295871
H     -2.717877   -2.449690   -0.760582
H     -3.240438   -0.895375   -1.404728
H     -2.166690    1.334295    1.627366
H     -1.843292    2.531423    0.361205
H      1.082637   -2.483175    1.244725
H      3.297738   -1.732458    2.008701
H     -0.535774   -2.624949   -0.598977
H     -0.603515   -1.358913   -1.839855
H      1.098627    0.545945   -1.751343
H      5.690697    1.556911   -0.563015
H      4.622652    2.517302    0.579485
H     -1.449842   -1.057542    1.102878
H     -1.175600    0.883778   -1.145114
