47

C      6.699704    0.657709   -1.242022
C     -7.156994    0.216693    0.489775
C     -2.079421   -1.128932   -1.226597
C      6.153874    0.097774    0.044433
C     -6.330415    0.223545   -0.758952
C      4.986704   -0.824490   -0.153910
C     -4.951141   -0.413979   -0.491055
C      3.818974   -0.166152   -0.826923
C      3.289923    1.010388   -0.037925
C     -4.230200    0.363000    0.574393
C      2.822533    0.632720    1.326622
C     -2.905188   -0.152191    0.964875
C      1.721224   -0.368856    1.376034
C     -1.841448   -0.247913   -0.058750
C      0.490093    0.096770    0.683413
O      0.387516    1.221390    0.121538
O     -0.652961   -0.704237    0.612995
H      5.925838    0.979812   -1.952919
H      7.302840    1.560670   -0.978729
H      7.391141   -0.059981   -1.741295
H     -8.240777    0.021212    0.274089
H     -7.119645    1.223834    0.963815
H     -6.835936   -0.533578    1.235991
H     -2.816013   -1.936710   -1.077732
H     -2.222935   -0.579575   -2.204419
H     -1.110756   -1.696537   -1.428405
H      5.928702    0.892545    0.788912
H      6.973084   -0.509654    0.500147
H     -6.136157    1.233668   -1.162129
H     -6.854248   -0.406396   -1.510898
H      4.690462   -1.217244    0.825097
H      5.324959   -1.650727   -0.816208
H     -4.408286   -0.257842   -1.448001
H     -5.119868   -1.448233   -0.210660
H      3.003955   -0.914060   -0.892855
H      4.051025    0.183957   -1.836278
H      2.559305    1.546035   -0.646118
H      4.163189    1.705836    0.107679
H     -4.890776    0.305049    1.496543
H     -4.224701    1.459948    0.349538
H      2.468798    1.555860    1.829850
H      3.688104    0.214092    1.879325
H     -2.505132    0.555423    1.761868
H     -3.041189   -1.107157    1.533843
H      1.447289   -0.523351    2.435372
H      2.021056   -1.366943    0.985287
H     -1.636102    0.784773   -0.458655
