47

C      7.884879   -0.480543    0.391673
C     -7.067420   -0.244792    0.166353
C     -3.018200    0.328171   -2.089100
C      6.614305   -1.282230    0.612376
C     -6.383468   -0.350881    1.530911
C      5.406023   -0.401995    0.370230
C     -5.144201    0.540146    1.512042
C      4.172730   -1.242680    0.601303
C      2.901231   -0.448318    0.381872
C     -4.259098    0.014685    0.403326
C      2.789471    0.095797   -1.001176
C     -2.979832    0.833807    0.286630
C      1.507777    0.874557   -1.137812
C     -2.174429    0.235449   -0.834089
C      0.285165    0.115872   -0.924777
O      0.170168   -1.106489   -0.668788
O     -0.925281    0.809827   -1.010423
H      8.697980   -1.101063   -0.044130
H      7.703772    0.368338   -0.322044
H      8.207205   -0.089329    1.361307
H     -6.833602    0.754430   -0.263454
H     -8.146414   -0.377074    0.290917
H     -6.594485   -1.016250   -0.470459
H     -3.683181   -0.541945   -2.133207
H     -3.595274    1.294045   -2.079048
H     -2.324055    0.379329   -2.944859
H      6.617762   -2.070887   -0.189174
H      6.608910   -1.787360    1.577413
H     -7.099233    0.007351    2.315541
H     -6.145678   -1.396549    1.770568
H      5.474172   -0.051842   -0.684059
H      5.413601    0.450959    1.066777
H     -4.634274    0.474582    2.479890
H     -5.495750    1.573955    1.314720
H      4.181584   -1.545855    1.671151
H      4.213923   -2.159082   -0.000862
H      2.846537    0.325948    1.167278
H      2.073972   -1.151728    0.593438
H     -4.850078    0.053220   -0.533481
H     -4.043634   -1.038074    0.623124
H      3.668922    0.665374   -1.333434
H      2.703276   -0.742620   -1.755487
H     -3.285707    1.870460   -0.023208
H     -2.461457    0.812868    1.252176
H      1.456864    1.298458   -2.186260
H      1.588167    1.783208   -0.494793
H     -2.043644   -0.844709   -0.616891
