38

C     -5.586110   -0.060795    0.590141
C      5.205450    0.350436    0.882163
C      4.156697   -0.332835   -1.865081
C     -4.409929   -0.978766    0.374274
C      4.479930   -0.902029    0.554062
C     -3.397131   -0.358057   -0.591887
C     -2.913180    0.935969    0.009682
C     -1.923390    1.612682   -0.877237
C     -0.735062    0.728418   -1.100086
C     -0.022804    0.375959    0.187509
C      3.487594   -0.764970   -0.581644
C      1.115757   -0.481311   -0.177784
O      0.927604   -1.678881   -0.435736
O      2.385369    0.020470   -0.238693
H     -5.563642    0.291175    1.646311
H     -6.545622   -0.633577    0.467089
H     -5.603078    0.758990   -0.131981
H      4.972086    1.212678    0.233195
H      6.313048    0.247714    0.866774
H      4.935241    0.652100    1.919490
H      4.379550   -1.213895   -2.537056
H      3.563123    0.365023   -2.463056
H      5.149224    0.108743   -1.639938
H     -3.890079   -1.184040    1.327850
H     -4.717953   -1.945086   -0.073475
H      3.880468   -1.282420    1.430498
H      5.222360   -1.702078    0.359213
H     -2.577057   -1.094074   -0.688082
H     -3.891421   -0.195088   -1.567972
H     -3.794362    1.633476    0.149218
H     -2.505549    0.709654    1.010649
H     -2.343878    1.886329   -1.863291
H     -1.558171    2.560837   -0.400811
H      0.018931    1.195236   -1.778830
H     -1.002312   -0.230635   -1.603910
H     -0.688809   -0.148010    0.905160
H      0.372056    1.332592    0.631232
H      3.105053   -1.791934   -0.770656
