81

C     -5.088981   -0.599938   -1.873527
C      5.874296   -1.197611    2.540766
C     -0.169556   -5.455602    0.487130
C      3.005052   -4.434236    1.108293
C      3.218485    3.178254    0.711556
C      2.535487    4.109031   -1.359441
C     -4.026408    3.135661    0.837909
C      1.978819    3.594580    1.280574
C      1.293404    4.513320   -0.742224
C     -3.789380    4.469286    0.692301
C      1.605883    0.068865   -2.328997
C     -4.728809   -2.586301   -0.283057
C      2.565804    0.520235   -3.433432
C     -5.351801   -1.383190    0.393107
C      4.591413    2.672031   -1.332396
C     -3.629747    0.797991    1.173293
C     -1.718099    2.581723    1.233250
C      4.245523   -0.315824    0.321798
C     -1.220553   -1.052045   -0.279172
C      3.445864    3.447763   -0.606932
C     -3.020076    2.170910    1.107047
C      1.029837    4.248439    0.552180
C     -3.267886   -2.330051   -0.334733
C      2.322200   -0.532662   -1.139368
C      3.527329    0.191860   -0.773839
C     -2.623769   -1.079969   -0.245394
C      3.855188    1.314158   -1.593449
C     -3.548364    0.071749   -0.165585
C     -2.474037    4.854703    0.822589
C     -1.439615    3.928251    1.089142
C      3.921075   -1.404243    1.064093
C     -0.525299   -2.233380   -0.401007
C     -2.560289   -3.534535   -0.459556
C      1.987488   -1.615407   -0.391181
C     -1.216570   -3.453034   -0.489626
C      2.776224   -2.031211    0.672928
N      3.153295    1.671227   -2.668412
N     -4.924587   -0.301106   -0.471593
O     -2.231964    6.238571    0.673739
O     -3.235219   -4.755341   -0.547721
O      4.701632   -1.831752    2.131693
O     -0.546520   -4.694418   -0.617967
O      2.480497   -3.170869    1.480370
O     -0.223807    4.622170    1.157677
O      0.862830   -2.488471   -0.459478
H     -5.114100    0.387734   -2.410919
H     -4.200996   -1.134524   -2.300212
H     -6.017768   -1.116094   -2.106924
H      6.069338   -1.520432    3.585366
H      6.766910   -1.462848    1.946957
H      5.750972   -0.081263    2.610229
H      0.753179   -6.017788    0.203447
H      0.141532   -4.801644    1.351849
H     -0.899705   -6.215034    0.804706
H      4.074368   -4.431650    1.404111
H      2.504411   -5.235057    1.651683
H      2.946036   -4.595029    0.004544
H      3.837589    2.700355    1.532983
H      2.483846    4.493434   -2.417023
H     -5.081147    2.847714    0.726559
H      1.920783    3.315644    2.378968
H      0.667674    5.061256   -1.506727
H     -4.564269    5.196023    0.488180
H      1.086703    1.022680   -1.985801
H      0.899892   -0.499254   -2.886311
H     -5.158413   -2.770996   -1.286536
H     -4.930547   -3.505053    0.304563
H      1.977821    0.932773   -4.241739
H      3.316234   -0.228039   -3.662854
H     -6.449554   -1.456821    0.466449
H     -4.837131   -1.343342    1.374580
H      4.882847    3.055928   -2.301174
H      5.534741    2.636589   -0.863387
H     -4.734694    0.882187    1.400811
H     -3.316681    0.138462    1.996245
H     -0.872332    1.852438    1.468991
H      5.198661    0.139203    0.661429
H     -0.655074   -0.065113   -0.189825
H     -3.362720    0.865084   -0.965979
H     -1.323202    6.625004    0.749800
H     -2.711491   -5.592109   -0.635523
