82

C     -3.870466    3.195396    3.919776
C     -4.048343   -2.191801   -1.933002
C      2.258385   -5.210634   -4.582357
C     -0.711439   -2.184821   -3.863259
C      2.739216    0.394973   -0.953215
C      3.649912    1.584797    0.915307
C     -1.695306    4.638819    1.230345
C      2.174434    1.619394   -1.429682
C      3.059187    2.784237    0.379663
C     -1.447103    5.508401    0.182748
C      4.414941   -3.295951   -0.384453
C     -4.783334    1.110539    1.372243
C      4.389284   -3.423206    1.083250
C     -4.680031    1.367339    2.841765
C      3.645369   -0.893069    0.953567
C     -1.358169    2.860377    2.811274
C      0.247805    3.259011    0.820630
C     -3.665096   -0.468117    0.003787
C      2.879228   -3.862931   -2.165648
C     -1.092750    0.104811    1.159567
C      3.444414    0.428448    0.227134
C     -0.894670    3.528369    1.582488
C     -3.462472    0.471335    1.026544
C      3.056029   -3.146581   -0.982032
C      2.326555    2.752288   -0.762991
C     -2.237514    0.757705    1.593639
C      2.519426   -1.879050    0.941698
C     -2.317173    1.745632    2.740308
C     -0.291937    5.184659   -0.526054
C      0.476614    4.144469   -0.216743
C     -2.525068   -1.083187   -0.386489
C     -1.238633   -0.870475    0.109581
C      1.634081   -3.773443   -2.694390
C      2.072341   -2.387566   -0.364076
C      0.683343   -3.038219   -2.095018
C      0.767276   -2.273963   -0.900599
N      3.103179   -3.061995    1.680119
N     -3.584504    2.334067    2.885997
O     -0.017297    6.068204   -1.604451
O     -2.770900   -2.035909   -1.428285
O      1.368893   -4.479789   -3.882067
O     -0.540382   -3.085715   -2.834277
O      1.663261    4.028685   -1.130243
O     -0.274968   -1.612443   -0.467323
H     -4.042412    2.577439    4.870313
H     -4.886906    3.730234    3.729256
H     -3.236231    4.001753    4.220292
H     -4.121669   -2.814091   -2.856472
H     -4.830142   -2.555394   -1.255921
H     -4.441687   -1.179107   -2.295967
H      3.132484   -5.569081   -4.013615
H      2.684371   -4.672265   -5.500435
H      1.812158   -6.191105   -5.001180
H     -0.549938   -2.657010   -4.876947
H     -0.114330   -1.241248   -3.853801
H     -1.789266   -1.812464   -3.893399
H      2.589317   -0.405153   -1.719730
H      4.269965    1.875088    1.817965
H     -2.620854    4.829788    1.818945
H      1.655969    1.437244   -2.416432
H      3.388422    3.629246    1.045236
H     -2.063701    6.335784   -0.049570
H      4.950106   -4.199041   -0.845288
H      4.998597   -2.446097   -0.743508
H     -5.622597    0.420660    1.141657
H     -4.958989    2.030958    0.764461
H      4.394799   -4.575240    1.266518
H      5.274553   -3.117265    1.623936
H     -5.591004    1.901309    3.173052
H     -4.491438    0.446624    3.383043
H      3.597396   -0.641402    2.149924
H      4.596539   -1.340262    0.982654
H     -0.617738    2.569999    3.598769
H     -1.852148    3.705220    3.455828
H      0.831287    2.350888    1.101647
H     -4.641995   -0.665585   -0.402341
H      3.704776   -4.399950   -2.593046
H     -0.041572    0.256229    1.519978
H      1.703451   -1.558690    1.592961
H     -2.222633    1.121333    3.714842
H      3.286761   -2.692620    2.614670
H      0.800680    5.900182   -2.143070
