81

C      4.915900   -3.285687   -0.724006
C     -5.258324    2.108795   -3.037554
C     -2.386207   -4.613505    2.170365
C     -2.611740   -1.677282   -3.020564
C     -0.460917    4.421111    1.586802
C     -1.514475    4.284464   -0.532799
C      4.526265    0.321789   -1.295791
C      0.797412    4.131317    0.965445
C     -0.237856    3.995212   -1.125847
C      5.029048    1.527662   -0.917475
C     -1.941948    0.526491    2.369374
C      2.950601   -3.715576    1.384016
C     -2.738418    1.312406    3.419314
C      3.818239   -2.462245    1.212308
C     -2.988666    4.380319    1.476394
C      2.973053   -1.333071   -2.027884
C      2.279718    1.137347   -1.551188
C     -3.871719    1.783584   -0.603714
C      0.185089   -1.994156   -0.541426
C     -1.577864    4.477865    0.812143
C      3.163625    0.082592   -1.621578
C      0.881272    3.919469   -0.365248
C      1.594837   -3.215607    0.944374
C     -2.616200    0.492806    1.016885
C     -3.214110    1.769946    0.645526
C      1.449928   -2.454138   -0.242320
C     -3.098012    2.810329    1.604440
C      2.722173   -2.339285   -0.968321
C      4.117214    2.558531   -0.860448
C      2.765912    2.370416   -1.170417
C     -3.997489    0.757232   -1.473700
C     -0.860746   -2.286789    0.311099
C      0.592853   -3.538230    1.817917
C     -2.731696   -0.521198    0.146040
C     -0.661930   -3.035058    1.447966
C     -3.406247   -0.406550   -1.066210
N     -2.537009    2.658861    2.807705
N      3.926195   -2.340462   -0.202415
O      4.679402    3.791259   -0.468483
O      0.716587   -4.277856    2.964434
O     -4.671479    0.874872   -2.681471
O     -1.670779   -3.393383    2.374389
O     -3.559609   -1.467233   -1.999590
O      2.111646    3.596708   -1.018303
O     -2.225393   -1.880310    0.168827
H      4.371973   -4.201813   -1.022701
H      5.381106   -2.827244   -1.605387
H      5.674734   -3.432846    0.043956
H     -5.736424    1.997922   -4.017059
H     -4.470537    2.902220   -3.027599
H     -6.015707    2.327417   -2.230223
H     -1.932668   -5.193351    1.332845
H     -3.444910   -4.413453    1.861452
H     -2.341363   -5.263745    3.061939
H     -1.926730   -2.477206   -2.679629
H     -2.069874   -0.716360   -3.155078
H     -3.169120   -1.957351   -3.937527
H     -0.263932    4.593237    2.690600
H     -2.253866    4.333281   -1.386655
H      5.261539   -0.503264   -1.338912
H      1.641682    4.127421    1.728526
H     -0.348473    3.868378   -2.243412
H      6.080946    1.680086   -0.673395
H     -1.717669   -0.370555    2.892452
H     -0.995932    1.134292    2.192217
H      3.286443   -4.529868    0.716566
H      2.928650   -4.047812    2.404986
H     -3.794506    1.038865    3.447820
H     -2.179840    1.267096    4.345987
H      3.351991   -1.675336    1.769765
H      4.803459   -2.705076    1.625593
H     -3.090456    4.870124    2.429376
H     -3.824066    4.763678    0.972404
H      2.355188   -1.519572   -2.959349
H      3.974096   -1.727973   -2.488843
H      1.173140    1.007300   -1.794472
H     -4.395508    2.691820   -0.968573
H     -0.042884   -1.408102   -1.504223
H      2.830596   -3.352076   -1.575759
H      4.062369    4.576078   -0.411648
H      1.478420   -4.709977    3.374949
