35

C     -0.510044   -2.046166   -1.877466
C      3.674796   -0.194994    0.820845
C     -0.716301   -0.080575    1.667348
C     -0.895736    2.246798    0.728686
C      1.600305    0.643776   -0.080701
C      0.729850    0.200292   -0.955615
C     -2.442657   -1.507470   -0.566224
C     -2.741375    0.692769    0.605262
C     -1.283201   -1.109623   -1.036339
C      3.090959    0.580854   -0.330639
C     -3.237063   -0.628713    0.261289
C     -0.713460    0.237230   -0.761510
C     -1.220094    0.795085    0.533822
O      3.342084   -0.026332   -1.556218
O     -4.355393   -1.001863    0.685333
H     -1.126167   -2.927168   -2.183018
H     -0.076633   -1.554600   -2.771497
H      0.303888   -2.461248   -1.243669
H      3.980234   -1.205698    0.490504
H      4.569253    0.327483    1.198848
H      2.970157   -0.312234    1.670388
H     -0.302618    0.499318    2.516154
H      0.003843   -0.868793    1.305960
H     -1.539051   -0.693446    2.130269
H     -0.255863    2.676969   -0.066374
H     -0.500692    2.403705    1.754466
H     -1.820172    2.897032    0.697294
H      1.263541    1.074610    0.839418
H      1.195011   -0.215358   -1.877689
H     -2.798417   -2.520815   -0.813238
H     -3.128008    1.442273   -0.112345
H     -3.049266    1.006240    1.619606
H      3.431106    1.631861   -0.330803
H     -1.223137    0.888029   -1.551037
H      3.780319   -0.889228   -1.411110
