36

C     -2.518879    0.357482   -1.675718
C     -1.184032   -1.774365   -0.037908
C      0.135931   -1.176558    2.026868
C     -1.027886    2.124472    1.226419
C     -1.498235    1.993913   -0.181487
C      1.443076   -1.095461   -1.413909
C      3.588737   -0.011139   -0.311470
C     -0.261284    1.167542    1.708574
C      0.128139   -0.360869   -1.507399
C      3.696274    0.671882    0.877366
C     -1.816540    0.531169   -0.370939
C      2.268977   -0.362674   -0.422834
C      1.639575    0.121208    0.698553
C     -0.622700   -0.352714   -0.206897
C      0.186520   -0.040373    0.983228
O      2.531468    0.736221    1.454358
H     -2.961562   -0.648851   -1.797476
H     -3.340489    1.125515   -1.710579
H     -1.852859    0.624138   -2.532114
H     -0.455096   -2.471880    0.364321
H     -2.120739   -1.691729    0.549454
H     -1.476788   -2.160793   -1.057688
H     -0.869835   -1.571963    2.154042
H      0.908021   -1.944064    1.781636
H      0.465109   -0.729053    2.987441
H     -1.319878    2.987801    1.815727
H     -0.758318    2.364910   -0.907106
H     -2.437808    2.552752   -0.342365
H      1.323767   -2.135487   -1.102866
H      1.921484   -1.032164   -2.409802
H      4.344664   -0.247137   -1.036176
H      0.067302    1.294935    2.747379
H     -0.489762   -0.886208   -2.256508
H      0.297246    0.670244   -1.828630
H      4.614112    1.106326    1.297356
H     -2.547709    0.262967    0.437148
