48

C     -2.752305    2.127259   -1.700110
C     -1.924804    0.898578   -1.493396
C      3.388161   -3.078795   -1.236541
C      2.146740   -3.639097   -1.380230
C     -3.511332   -0.710234    1.509067
C      3.541531   -1.814273   -0.727704
C      1.062187   -2.893616   -0.998031
C      0.211471    1.576428    0.900551
C      3.478882    1.086569    0.478216
C     -3.305434    0.195462    0.346713
C     -1.252448    1.555288    0.757278
C     -2.786478   -2.021209    1.171580
C      3.202893    2.533457    0.637088
C      2.453850   -1.039087   -0.332977
C      2.305879    0.229477    0.199773
C      1.218269   -1.621948   -0.486287
C      0.953655    0.418682    0.372255
C     -1.108863   -0.832054    0.017736
C     -1.867265    0.454033   -0.022389
N     -1.393052   -1.677045    1.152876
N      0.325490   -0.688723   -0.039103
O      4.437185    3.194177    0.895302
H     -3.584098    1.942489   -2.447474
H     -3.248741    2.534988   -0.823688
H     -2.146154    2.960424   -2.147725
H     -2.445322    0.051621   -2.015044
H     -0.899513    1.001255   -1.902547
H      4.255157   -3.641577   -1.527976
H      2.027592   -4.661236   -1.790795
H     -3.082146   -0.335419    2.458512
H     -4.572523   -0.963709    1.568994
H      4.524854   -1.362502   -0.609064
H      0.082110   -3.309658   -1.101453
H      0.493170    1.752726    1.978453
H      0.588491    2.494183    0.362732
H      4.182862    0.987767   -0.399975
H      4.079468    0.705495    1.339394
H     -3.798150   -0.291091   -0.533358
H     -3.874865    1.143346    0.499853
H     -1.635043    2.553899    0.384755
H     -1.716431    1.501703    1.789718
H     -3.047482   -2.839407    1.840624
H     -3.067262   -2.253905    0.099363
H      2.628144    2.707357    1.571602
H      2.810871    3.033600   -0.255201
H     -1.427564   -1.425920   -0.882028
H     -1.127342   -1.230946    2.044838
H      5.175705    2.691186    0.475819
