40

C     -0.939456    3.175906    0.524054
C      2.882092   -2.070466   -0.358582
C      2.096666   -0.647821    1.567570
C     -1.747223   -2.334256    0.748909
C      0.884791    2.550128   -0.860577
C      1.827656    1.522083   -0.241641
C     -2.529483    1.012097    0.221076
C     -2.996093   -0.410704   -0.115757
C     -0.442968    2.237546   -0.263410
C     -1.174707    1.003259   -0.502537
C      1.765554    0.199963   -0.869754
C     -0.570630   -0.244668    0.010978
C      0.680610   -0.701906   -0.630336
C      1.937768   -0.971126    0.120567
C     -1.721925   -1.219366   -0.241069
O     -1.629108   -1.703716   -1.565537
H     -0.367553    4.080089    0.678282
H     -1.905146    3.070533    1.023291
H      3.862046   -1.575368   -0.522523
H      2.545774   -2.531032   -1.291109
H      3.013346   -2.785163    0.473330
H      3.050756   -0.055509    1.692564
H      1.311051   -0.057804    2.023207
H      2.168075   -1.604279    2.117409
H     -0.736850   -2.748690    0.948181
H     -2.342819   -3.161899    0.310581
H     -2.274325   -2.019823    1.673038
H      1.218597    3.571825   -0.626840
H      0.837135    2.395132   -1.973356
H      2.860843    1.948244   -0.404321
H      1.664738    1.568571    0.847236
H     -3.202236    1.775554   -0.160653
H     -2.393698    1.113736    1.312026
H     -3.663127   -0.805888    0.675825
H     -3.507301   -0.325336   -1.104106
H     -1.415343    0.921642   -1.579664
H      2.356476    0.113890   -1.831021
H     -0.515866   -0.162403    1.132013
H      0.496479   -1.475337   -1.437587
H     -1.384598   -2.647638   -1.519758
