55

C      4.523108   -3.202827   -0.496176
C      0.852568    2.025892   -0.183601
C      0.199891    3.176653   -0.914920
C      2.354245    2.106174   -0.354838
C     -1.195004    3.476841   -0.448576
C      3.070903    0.857952    0.094172
C     -2.270713    2.695880   -1.125813
C      2.164976   -0.359178    0.017975
C     -3.477963    2.407485   -0.284491
C      2.871886   -1.618660    0.462029
C     -3.819958    0.925088   -0.196125
C     -0.602197   -2.442697    0.688885
C     -0.140971   -2.427895   -0.506641
C      3.172230   -2.530415   -0.690739
C     -2.605275    0.204193    0.233301
C     -1.594712   -1.607178    1.453321
C      0.844156   -3.257285   -1.260870
C     -2.854835   -1.213493    0.775520
O     -2.015916    0.883739    1.326599
O     -2.021924   -2.295384    2.632082
O      0.468527   -3.875698   -2.356428
O     -3.981760   -1.275854    1.560700
O      2.168154   -3.483471   -0.966980
H      4.672751   -3.619538    0.497947
H      5.298937   -2.396536   -0.630036
H      4.671519   -3.905808   -1.333658
H      0.584359    2.075072    0.872097
H      0.518677    1.102760   -0.704745
H      0.227472    3.081669   -2.005038
H      0.829487    4.080330   -0.669093
H      2.615753    2.296856   -1.427710
H      2.751403    2.993125    0.213058
H     -1.240242    3.428957    0.678228
H     -1.361464    4.578345   -0.648921
H      3.953049    0.636028   -0.547902
H      3.461612    0.988847    1.128283
H     -1.872434    1.781313   -1.655015
H     -2.648796    3.323402   -1.989725
H      1.830623   -0.415443   -1.030945
H      1.257896   -0.215369    0.646280
H     -3.232384    2.709152    0.773772
H     -4.371162    2.996821   -0.571436
H      2.237027   -2.210885    1.182838
H      3.840900   -1.352834    0.978906
H     -4.663989    0.820751    0.485139
H     -4.081261    0.595953   -1.231482
H     -0.296891   -3.188617    1.527947
H     -0.439242   -1.669505   -1.334113
H      3.340872   -1.834903   -1.567928
H     -1.834912    0.089002   -0.540343
H     -1.120276   -0.706418    1.910728
H     -3.028168   -1.835170   -0.136839
H     -2.561091    0.768759    2.141707
H     -1.577088   -3.185654    2.627914
H     -3.872353   -0.980323    2.480299
