39

C      3.595659   -0.928098    1.457341
C      4.609657    0.290731   -0.525195
C     -2.738431   -2.297820    0.854488
C     -0.083757    0.581754   -1.875352
C      1.116376    0.306672    1.044813
C      2.242925    0.598069    0.168432
C     -3.061855    0.114017    1.216926
C     -2.412277    1.436325    1.037068
C     -0.083710   -0.316730    0.468823
C     -2.703032    0.912206   -1.291072
C      3.448849    0.019846    0.341173
C     -2.649480   -0.880600    0.419878
C     -1.723645    1.498445   -0.291891
C     -2.111168   -0.448982   -0.900721
C     -0.843475    0.331062   -0.592761
H      2.889659   -1.770972    1.292121
H      3.417905   -0.476238    2.457854
H      4.612426   -1.372112    1.508934
H      5.448798    0.786184    0.007192
H      5.004920   -0.685864   -0.874296
H      4.386174    0.905746   -1.406428
H     -1.829272   -2.879399    0.533996
H     -3.659680   -2.728466    0.403319
H     -2.778381   -2.374448    1.942583
H      0.806265   -0.083852   -1.959528
H     -0.711880    0.361577   -2.792132
H      0.260372    1.616343   -2.007381
H      1.475116   -0.414114    1.847942
H      0.918369    1.229428    1.642130
H      2.185120    1.296962   -0.656390
H     -3.828240   -0.001816    1.967063
H     -1.767779    1.719942    1.885784
H     -3.237369    2.184243    1.013876
H     -0.733235   -0.636382    1.336296
H      0.251318   -1.324663    0.062743
H     -2.511999    1.105143   -2.348335
H     -3.765934    1.022793   -0.983648
H     -1.377942    2.491159   -0.589291
H     -2.057365   -1.188091   -1.690460
