48

C     -3.221227   -1.009880    2.138575
C     -3.259983   -0.040511    1.001553
C      3.426630   -2.697894   -1.595494
C      2.199219   -3.256201   -1.755525
C     -2.726529    0.633082   -1.820271
C      3.535329   -1.500946   -0.936336
C      1.097461   -2.618902   -1.259231
C      0.198213    1.549859    1.197382
C      3.461454    1.207217    0.599459
C     -2.119887    1.358663   -0.621662
C     -1.180330    1.035819    1.651177
C     -1.750963   -0.415678   -2.243784
C      3.252899    2.475101    1.303434
C      2.451622   -0.807754   -0.410896
C      2.303195    0.391528    0.282012
C      1.217050   -1.393165   -0.585235
C      0.952445    0.489806    0.506546
C     -1.117828   -0.779215    0.055677
C     -1.897063    0.392027    0.515165
N     -1.594300   -1.367548   -1.181970
N      0.317002   -0.574534   -0.012089
O      2.473155    3.417404    0.689643
H     -2.984505   -2.057854    1.798406
H     -2.637388   -0.696978    3.006985
H     -4.285924   -1.093217    2.509065
H     -3.769989    0.888407    1.389503
H     -3.910105   -0.443904    0.225502
H      4.317250   -3.179795   -1.978055
H      2.063711   -4.211997   -2.275761
H     -3.748231    0.299182   -1.661598
H     -2.754490    1.408811   -2.637064
H      4.508999   -1.067924   -0.814953
H      0.117430   -3.052192   -1.380104
H      0.660308    1.927127    2.114322
H     -0.057311    2.419123    0.554099
H      3.974438    1.440207   -0.383394
H      4.262070    0.638827    1.161417
H     -2.864775    2.091764   -0.296187
H     -1.182388    1.804532   -1.014235
H     -1.722668    1.918894    2.017294
H     -0.955735    0.300427    2.443512
H     -0.800278    0.097995   -2.507349
H     -2.091328   -0.949405   -3.134682
H      4.278926    2.959001    1.386916
H      2.997284    2.316693    2.393794
H     -1.252863   -1.591146    0.831239
H     -2.502619   -1.829126   -1.017516
H      2.322620    3.174272   -0.249284
