30

C     -1.605577    2.787756   -0.269673
C      1.766290   -1.413148   -0.170515
C      2.929342    1.045432   -0.320359
C     -0.920029    0.717298    0.961428
C     -1.023334   -1.690361    0.356286
C     -0.527669    2.092809    0.505739
C      0.947902   -0.306145   -0.140864
C      3.148364   -1.301817   -0.273502
C      3.735109   -0.068506   -0.348909
C      1.542991    0.943854   -0.217322
C     -2.475701   -1.790964    0.457590
C     -0.516434   -0.349145   -0.033394
Cl     4.159026   -2.726822   -0.308593
Cl     5.492950    0.096455   -0.480519
O     -3.319283   -0.897436    0.250020
O     -3.003099   -3.042616    0.834433
O     -1.034359   -0.057852   -1.307494
O      0.705984    2.037600   -0.185993
H     -1.207394    3.625059   -0.851624
H     -2.335465    3.191123    0.488175
H     -2.180705    2.142132   -0.937350
H      1.314155   -2.372801   -0.112099
H      3.369574    2.030227   -0.378526
H     -1.972544    0.724324    1.230601
H     -0.303388    0.508603    1.884562
H     -0.550186   -2.052431    1.310972
H     -0.697310   -2.417723   -0.440830
H     -0.328843    2.732513    1.415396
H     -3.977308   -3.277449    0.618548
H     -1.133059   -0.909971   -1.811651
