26

C     -4.262058   -0.318222   -0.238837
C     -3.227641   -0.906988    0.354995
C     -4.006446    0.725608   -1.118118
C      0.249595   -1.407422   -0.558098
C      1.106133    1.437319    0.207491
C      2.382780    0.803634   -0.274976
C     -1.934030   -0.508227    0.118417
C     -0.654478   -0.922451    0.582047
C      2.492805   -0.603658    0.166457
N      3.528557    1.530743    0.235563
N      1.584802   -1.519932    0.038964
O      3.694654   -0.994051    0.785003
S     -2.214993    0.859512   -1.084868
S      0.227665    0.414503    1.410893
H     -5.344184   -0.610041   -0.076930
H     -3.353027   -1.770835    1.089825
H     -4.700532    1.352372   -1.716456
H     -0.091347   -2.401285   -0.879192
H      0.238902   -0.691142   -1.402220
H      0.426380    1.602414   -0.662040
H      1.318388    2.425431    0.666623
H      2.426974    0.836524   -1.401895
H     -0.752717   -1.753139    1.290477
H      3.231677    2.213928    0.953952
H      4.046549    1.998871   -0.529257
H      3.585590   -1.793468    1.429058
