30

C     -3.119272   -0.973382   -0.570827
C      2.297148   -0.123312    0.006618
C      1.453450   -2.564499   -0.981432
C     -1.190694   -0.020415    0.704614
C      0.485019    1.842746    0.661134
C     -1.748704   -1.205630   -0.008373
C      0.973350   -0.375422   -0.255657
C      3.195856   -1.139200   -0.242675
C      2.797855   -2.363576   -0.735044
C      0.527497   -1.577263   -0.745798
C     -0.435631    2.951232    0.939210
C     -0.087431    0.664644   -0.025301
Cl     4.882900   -0.811346    0.093853
Cl     3.979557   -3.616460   -1.033225
O     -1.625224    2.901649    0.586696
O      0.023630    4.069699    1.603412
O     -0.578612    1.030939   -1.299959
O     -0.851322   -1.753914   -0.987331
H     -3.235470   -0.080021   -1.178166
H     -3.431181   -1.910075   -1.078630
H     -3.813701   -0.879618    0.310662
H      2.632902    0.850582    0.401350
H      1.100280   -3.524284   -1.374634
H     -0.756638   -0.340153    1.699095
H     -2.011902    0.673161    0.961384
H      1.006651    1.565212    1.606990
H      1.257915    2.276925   -0.046978
H     -1.869053   -2.044153    0.741697
H     -0.423291    4.977929    1.509153
H     -1.435885    1.498004   -1.261835
