110

C      2.035394   -2.126271   -2.038159
C      0.021353   -1.158266   -2.558368
C     -0.292907   -2.592375    1.410743
C     -2.460472   -2.746174    0.664443
C      7.062362   -0.606491    1.305693
C      7.407085    1.667029    1.808226
C     -6.631881   -0.039809   -1.022282
C     -7.298220    1.968615   -2.063162
C      1.844310   -3.059836   -2.998895
C     -0.210766   -2.091745   -3.546482
C     -0.260393   -3.938159    1.713374
C     -2.482824   -4.069746    0.942665
C      8.441891   -0.759489    1.171585
C      8.762341    1.534065    1.680451
C     -7.836166   -0.623111   -1.444077
C     -8.462524    1.414020   -2.474495
C      5.018318    1.334370   -0.938671
C     -4.971561    0.923335    1.615441
C      0.651705    0.592377    2.598321
C     -0.535912    2.264673   -1.401346
C      3.809207    1.619256   -3.006806
C     -3.951229   -0.239496    3.409007
C      2.450911    0.342287    4.124526
C     -2.255374    3.311610   -2.631245
C      1.102093   -1.083896   -1.750822
C     -1.330512   -1.905493    0.889043
C      6.526456    0.612712    1.626634
C     -6.344438    1.253878   -1.321109
C      0.724185   -3.052775   -3.759721
C     -1.387752   -4.677823    1.467891
C      9.295728    0.306135    1.357486
C     -8.740881    0.113452   -2.168037
C      4.937807    1.803788   -2.251146
C     -5.004280    0.507074    2.930804
C      1.120543    0.519934    3.925174
C     -0.935973    3.179895   -2.358784
C      3.942213    0.685538   -0.424766
C     -3.898888    0.587045    0.822619
C      1.519732    0.485042    1.558731
C     -1.423884    1.484449   -0.715747
C      2.728679    0.944281   -2.428041
C     -2.881229   -0.563372    2.586625
C      3.342120    0.233450    3.054562
C     -3.204766    2.540441   -1.962391
C      1.497724   -0.224244   -0.691810
C     -1.563443   -0.554823    0.531711
C      2.751751    0.465026   -1.148146
C     -2.823295   -0.162211    1.287411
C      2.852025    0.308658    1.760938
C     -2.777828    1.637726   -1.015117
C      0.728949    0.608286    0.206579
C     -0.711190    0.581795    0.344631
C      4.121506    0.170792    0.934855
C     -4.046711    0.996217   -0.550484
C      5.111604    0.808072    1.830113
C     -5.085540    1.954528   -0.897251
O      0.522654   -4.009624   -4.747590
O     -1.404664   -6.056965    1.759785
O     10.690327    0.136274    1.218052
O     -9.945774   -0.441756   -2.599957
O      5.997226    2.476309   -2.843498
O     -6.093735    0.844191    3.751951
O      0.199250    0.633691    4.976422
O      0.042125    3.932478   -3.006867
O      1.620507    0.778772   -3.218726
O     -1.900261   -1.309129    3.163914
O      4.717846    0.051813    3.042212
O     -4.575165    2.513475   -2.082378
H      2.965584   -2.208908   -1.475888
H     -0.731231   -0.414880   -2.442210
H      0.604037   -2.051506    1.617093
H     -3.384239   -2.334135    0.243311
H      6.428133   -1.448647    1.156161
H      6.996125    2.642321    2.063499
H     -5.956653   -0.666815   -0.466308
H     -7.054768    3.005570   -2.296555
H      2.573004   -3.853940   -3.206296
H     -1.107804   -2.079331   -4.150296
H      0.608038   -4.422239    2.130041
H     -3.358307   -4.693620    0.763242
H      8.884964   -1.709374    0.919556
H      9.444508    2.356919    1.822333
H     -8.059627   -1.650548   -1.203309
H     -9.155122    2.041595   -3.050708
H      5.946932    1.539307   -0.463288
H     -5.826149    1.497179    1.295692
H     -0.421613    0.746787    2.500596
H      0.514864    2.168984   -1.199653
H      3.701512    1.958547   -4.011876
H     -3.986547   -0.562213    4.440289
H      2.848776    0.279605    5.151919
H     -2.601156    4.018809   -3.374974
H      1.966937   -1.001406    0.051852
H     -2.042126   -0.676646   -0.529423
H      1.066038    1.649221    0.132488
H     -0.959123    1.268747    1.178768
H      4.340775   -0.961108    0.892030
H     -4.221599    0.056676   -1.171479
H      4.804513    1.846247    2.046901
H     -5.382604    2.717504   -0.160365
H      1.188945   -4.724350   -4.926328
H     -1.712402   -6.340039    2.696768
H     11.282631   -0.118628    1.985854
H    -10.746582   -0.360571   -1.974711
H      6.672659    1.896248   -3.339579
H     -5.980112    1.735736    4.259151
H     -0.028973    1.536452    5.373552
H      0.327577    4.815504   -2.625846
H      1.549742    1.106004   -4.154192
H     -1.867044   -1.638831    4.095948
