26

C      4.177520    0.672507    0.455420
C      3.309695   -0.276248    0.122499
C      3.688668    1.857225    0.918034
C     -0.092674   -0.252487   -1.084305
C     -1.851658   -1.558261    0.921697
C     -2.634115   -0.282004    0.715539
C      1.976021   -0.048868    0.248259
C      0.814631   -0.934776   -0.052154
C     -1.798290    0.860358    0.336488
N     -3.720453   -0.527336   -0.230011
N     -0.748512    0.843412   -0.412440
O     -2.169896    2.098753    0.833224
S      1.915161    1.579008    0.865705
S     -0.156793   -1.157664    1.438603
H      5.287803    0.552666    0.376998
H      3.637477   -1.274322   -0.264726
H      4.202776    2.810653    1.263265
H      0.606958    0.206703   -1.829435
H     -0.781515   -0.974922   -1.537971
H     -1.875451   -2.111650   -0.040465
H     -2.369837   -2.189000    1.671429
H     -3.116876   -0.045502    1.687569
H      1.217420   -1.874560   -0.419828
H     -3.448254   -1.252443   -0.934892
H     -4.093875    0.340602   -0.644837
H     -1.975931    2.938158    0.265613
