69

C     -2.554177   -2.959201    0.977138
C     -2.584491   -4.186347    0.339335
C     -2.566918   -1.858582   -1.095935
C      3.182858   -1.412341   -0.162537
C      3.135395   -1.853752    2.146572
C      1.853707    2.904533   -2.866382
C      3.718838    1.972441   -1.708847
C     -4.097826    1.398960    0.541076
C     -1.966703    4.474151    0.856745
C     -2.544467   -1.766273    0.287917
C      2.949856   -0.953620    1.117054
C      3.177646    2.517865   -2.854194
C     -2.932584    2.332498    0.642279
C     -2.606234   -4.247313   -1.033064
C     -3.098176    3.691501    0.774658
C     -2.597320   -3.076299   -1.750508
C      1.028601    2.766128   -1.756443
C     -0.702821    3.924689    0.808922
C      3.583904   -2.708782   -0.423314
C      3.539055   -3.163162    1.901645
C     -3.857407    0.106359    1.245429
C      2.907254    1.832042   -0.604785
C      1.561202    2.231373   -0.633715
C     -0.527564    2.538526    0.673988
C      0.818868    2.024849    0.624620
C      3.764306   -3.597897    0.631336
C      1.035479    0.606726    1.071979
C     -2.511762   -0.500780    1.023565
C      2.519290    0.442022    1.385995
C     -1.684355    1.792986    0.595523
O      3.951592    2.688440   -4.014684
O     -2.636959   -5.489563   -1.679601
O     -4.367122    4.228507    0.821225
O     -2.619239   -3.132319   -3.144121
O     -0.295761    3.151083   -1.766660
O      0.397242    4.761648    0.896136
O      3.803938   -3.119157   -1.718608
O      3.708209   -4.017059    2.967757
O     -4.159759    0.276637    2.608281
O      4.165543   -4.878296    0.306171
O      0.376653    0.449343    2.285714
O      3.325145    1.297382    0.608817
O     -1.568499    0.426415    0.462603
H     -2.537646   -2.953219    2.058224
H     -2.591206   -5.109951    0.924658
H     -2.560388   -0.950982   -1.685669
H      3.057818   -0.762505   -1.028911
H      2.972111   -1.561834    3.156517
H      1.413996    3.333601   -3.756014
H      4.751072    1.656491   -1.657353
H     -4.281759    1.251854   -0.552904
H     -4.951085    1.924036    1.034202
H     -2.119783    5.539795    0.960489
H     -4.614365   -0.623720    0.864107
H      1.402604    2.636367    1.393455
H      0.797176   -0.156764    0.320697
H     -2.091736   -0.715120    2.050289
H      2.729539    0.662027    2.443805
H      4.465008    3.547375   -4.169068
H     -2.643046   -6.330115   -1.136691
H     -4.544798    5.212867    0.916892
H     -2.641445   -4.019951   -3.620716
H     -0.660502    3.547882   -2.625533
H      0.287465    5.745044    0.991852
H      4.094395   -4.053926   -1.923055
H      3.991195   -4.965860    2.914386
H     -4.985475    0.824767    2.632417
H      4.320663   -5.588393    1.005142
H      0.915754   -0.006129    2.967123
