70

C      4.373279    1.420293   -1.008076
C      5.345464   -0.695883   -0.663355
C     -4.555158    2.522916   -1.243378
C     -4.596950    0.262664   -0.629332
C     -1.343522   -3.666369   -0.536875
C     -2.578305   -2.513347   -2.187708
C      2.984606    0.134754    3.144142
C     -0.753886   -0.273530    3.415336
C      4.384027    0.228371   -0.318134
C     -3.890106    1.317058   -1.170180
C     -2.242504   -3.704976   -1.580419
C      1.543612    0.015744    2.738236
C      0.584915   -0.158988    3.721363
C     -0.796866   -2.455691   -0.116496
C     -1.129496   -0.210317    2.090584
C      5.292861    1.683335   -2.011867
C      6.274343   -0.437465   -1.672992
C     -5.852045    2.680487   -0.805055
C     -5.894066    0.393549   -0.183884
C      3.762373    0.712804    1.984386
C     -2.053214   -1.304009   -1.792232
C     -1.153519   -1.260035   -0.748988
C     -0.187076   -0.035483    1.085064
C     -0.601703    0.039457   -0.341670
C      6.248573    0.762411   -2.353782
C     -6.518143    1.610993   -0.275260
C     -1.485778    1.216039   -0.529380
C      3.430962   -0.092455    0.748469
C     -2.494793    1.106206   -1.631261
C      1.151125    0.076599    1.421335
O     -2.750374   -4.939460   -1.951361
O      0.978944   -0.221884    5.058305
O      0.096997   -2.423158    0.922196
O     -2.466152   -0.323138    1.751074
O      5.255530    2.901543   -2.692708
O      7.248849   -1.363500   -2.029296
O     -6.497758    3.927054   -0.896171
O     -6.592192   -0.677965    0.358273
O      5.117491    0.728810    2.217281
O      7.174182    1.042492   -3.373200
O     -7.846195    1.727948    0.185426
O     -0.632182    2.327486   -0.747070
O     -2.373817   -0.092198   -2.385120
O      2.087795    0.252799    0.380539
H      3.616820    2.174909   -0.752427
H      5.408316   -1.646874   -0.163109
H     -4.019748    3.376317   -1.667637
H     -4.132575   -0.700524   -0.545912
H     -1.024064   -4.559500   -0.002406
H     -3.284075   -2.524843   -3.010382
H      3.423725   -0.859999    3.366068
H      3.059519    0.807044    4.044785
H     -1.518845   -0.410406    4.167653
H      3.360605    1.753569    1.804674
H      0.333361    0.184355   -0.968538
H     -2.045388    1.494551    0.390394
H      3.484895   -1.153270    1.017918
H     -2.292840    1.930233   -2.359966
H     -3.606473   -5.243209   -1.486145
H      1.908929   -0.154870    5.400331
H      0.363660   -3.278739    1.388185
H     -3.158609   -0.450392    2.474425
H      5.905594    3.111274   -3.416121
H      7.324911   -2.268910   -1.567883
H     -7.447201    4.003384   -0.564867
H     -6.226306   -1.595858    0.465910
H      5.620158    0.757572    1.354776
H      7.867840    0.338265   -3.600402
H     -8.321166    0.928453    0.572879
H     -0.651168    2.618258   -1.688962
