69

C      1.938460    0.872850    2.361085
C      1.822123    1.902964    3.280084
C      2.961003    2.343570    0.845028
C     -2.799334    1.912270    0.055133
C     -2.042116    3.053318   -1.845019
C     -2.975196   -3.285235    1.183774
C     -4.253552   -1.584598    0.116083
C      3.698264   -2.316371    0.212641
C      1.415793   -4.420277   -1.940301
C      2.511003    1.071904    1.122899
C     -2.305399    1.839597   -1.229157
C     -4.148273   -2.587322    1.044604
C      2.532175   -2.776794   -0.568583
C      2.273388    3.185869    3.006433
C      2.538374   -3.998852   -1.213046
C      2.845689    3.389947    1.771895
C     -1.875176   -2.991722    0.390370
C      0.300874   -3.625378   -2.019607
C     -3.028841    3.095512    0.714852
C     -2.263441    4.255871   -1.205527
C      3.866022   -0.845102    0.322811
C     -3.156057   -1.288152   -0.678880
C     -1.991545   -1.989054   -0.533412
C      0.285061   -2.403960   -1.379681
C     -0.898430   -1.577729   -1.447545
C     -2.764389    4.284838    0.094454
C     -0.784883   -0.110806   -1.363505
C      2.645474   -0.014950    0.127672
C     -2.078165    0.529054   -1.891249
C      1.393910   -1.983907   -0.659793
O     -5.226337   -2.891979    1.838406
O      2.134080    4.195736    3.967660
O      3.628381   -4.817942   -1.156345
O      3.315931    4.648326    1.437353
O     -0.670117   -3.712769    0.538206
O     -0.801067   -4.094950   -2.762941
O     -3.526666    3.085931    2.004990
O     -1.998300    5.479711   -1.825720
O      4.886740   -0.450497   -0.574348
O     -2.978110    5.521063    0.715904
O      0.301475    0.427959   -2.042353
O     -3.221198   -0.261803   -1.647598
O      1.455744   -0.774798    0.008486
H      1.582091   -0.128308    2.584817
H      1.368354    1.731269    4.252668
H      3.416226    2.533470   -0.119638
H     -3.019060    0.988744    0.576122
H     -1.655263    3.017227   -2.849054
H     -2.851919   -4.088236    1.909620
H     -5.171417   -1.006903   -0.025434
H      3.631773   -2.825418    1.209355
H      4.671612   -2.720919   -0.201980
H      1.409686   -5.381078   -2.452279
H      4.295500   -0.651726    1.345481
H     -1.332575   -1.780178   -2.489371
H     -0.698230    0.200947   -0.305510
H      2.765092    0.483865   -0.883005
H     -1.941751    0.695738   -2.984911
H     -5.408462   -2.462690    2.735499
H      2.435691    5.144533    3.841475
H      4.477682   -4.644876   -0.677441
H      3.268588    5.435901    2.040768
H     -0.595256   -4.436782    1.208961
H     -0.773315   -4.989266   -3.224268
H     -3.721986    2.212269    2.464234
H     -1.636049    5.473591   -2.764936
H      4.671406   -0.732563   -1.497824
H     -2.769744    6.361731    0.221800
H      0.617950    1.278318   -1.660802
