69

C     -2.670096    1.606963    1.531447
C     -2.910745    2.281680    2.734709
C     -4.076738   -0.137334    2.224288
C      3.026696    0.375151    2.774809
C      3.985203   -0.609699    0.872999
C      0.878268    2.843794   -3.866308
C      2.639299    3.284789   -2.312912
C     -3.392711   -2.199938   -1.496427
C     -0.320516   -2.547186   -3.591498
C     -3.244907    0.386523    1.249145
C      3.075394    0.284547    1.398275
C      1.907063    3.649218   -3.427599
C     -2.038595   -1.982351   -1.998166
C     -3.737580    1.736984    3.677493
C     -1.592981   -2.724056   -3.093340
C     -4.328687    0.517168    3.425942
C      0.538438    1.662957   -3.228759
C      0.503477   -1.624465   -2.987816
C      3.801007   -0.344827    3.628280
C      4.786261   -1.356036    1.712482
C     -3.592986   -1.650480   -0.102073
C      2.310669    2.120774   -1.677247
C      1.266723    1.312859   -2.131246
C      0.097783   -0.861421   -1.889801
C      1.037141    0.071300   -1.335965
C      4.708343   -1.237094    3.096210
C      0.933883    0.447210    0.101918
C     -2.961217   -0.275215   -0.014015
C      2.189224    1.118317    0.559079
C     -1.197387   -1.077994   -1.425508
O      2.259466    4.833105   -4.054223
O     -3.976826    2.403921    4.869341
O     -2.405162   -3.656758   -3.714657
O     -5.162180   -0.032205    4.375684
O     -0.485145    0.845903   -3.650946
O      1.779449   -1.472745   -3.516684
O      3.734046   -0.236461    5.013411
O      5.691814   -2.247244    1.159474
O     -3.105512   -2.493091    0.867926
O      5.545724   -2.019160    3.913258
O      0.802538   -0.743257    0.841311
O      2.966510    1.628276   -0.534732
O     -1.594877   -0.327780   -0.349875
H     -2.017521    2.077976    0.821047
H     -2.453271    3.239381    2.944693
H     -4.540136   -1.084056    2.035209
H      2.314931    1.075284    3.204386
H      4.090433   -0.742538   -0.201002
H      0.305983    3.128807   -4.737686
H      3.454361    3.877796   -1.928793
H     -3.585092   -3.291850   -1.487366
H     -4.157080   -1.771500   -2.197204
H      0.004295   -3.136769   -4.446077
H     -4.682035   -1.522324    0.050597
H      2.054810   -0.447364   -1.401065
H      0.098739    1.142825    0.315814
H     -3.465227    0.318486   -0.836915
H      1.969755    2.039898    1.180360
H      1.817627    5.677908   -3.755952
H     -4.581865    1.998696    5.551823
H     -3.343029   -3.882063   -3.456231
H     -5.620723   -0.927583    4.236657
H     -1.051411    1.072733   -4.465223
H      2.132942   -1.978530   -4.290772
H      3.085850    0.401234    5.417174
H      6.282620   -2.799697    1.739376
H     -2.136159   -2.586412    0.888944
H      5.443931   -1.889638    4.906943
H      0.907700   -1.545344    0.283580
