69

C      3.732104    0.860117    2.158332
C      4.222459    1.731705    3.103366
C      4.016002    2.555746    0.543450
C     -3.924108    1.929420   -2.521888
C     -3.974465    1.236261   -0.279095
C     -2.236693   -2.493004    2.491934
C     -3.956757   -2.404592    0.812209
C      3.990865   -1.893330   -0.300346
C      1.178145   -3.847364   -1.812957
C      3.623745    1.274168    0.848122
C     -3.591897    0.959418   -1.572422
C     -3.524646   -2.747762    2.072141
C      2.655280   -2.337063   -0.768779
C      4.616993    3.014204    2.808642
C      2.435426   -3.517741   -1.420414
C      4.516696    3.444475    1.510674
C     -1.378929   -1.874573    1.599807
C      0.119782   -2.974803   -1.546169
C     -4.587652    3.090667   -2.213145
C     -4.645348    2.402608    0.055157
C      4.188190   -0.473082   -0.785216
C     -3.050863   -1.778258   -0.059765
C     -1.754894   -1.504304    0.316452
C      0.306327   -1.773957   -0.889752
C     -0.792928   -0.837895   -0.609633
C     -4.953081    3.329991   -0.906114
C     -1.394295   -0.204233   -1.796479
C      3.118733    0.428171   -0.239131
C     -2.867252   -0.293451   -1.958183
C      1.592129   -1.462826   -0.502292
O     -4.400194   -3.369727    2.958271
O      5.100770    3.851748    3.781636
O      3.544577   -4.345391   -1.654738
O      4.890720    4.721297    1.120476
O     -0.070678   -1.624668    2.049397
O     -1.125251   -3.357999   -1.964380
O     -4.911030    4.046142   -3.169230
O     -5.006873    2.629883    1.375449
O      5.475192   -0.004655   -0.487817
O     -5.631990    4.511499   -0.570791
O     -1.072068    1.173937   -1.841138
O     -3.442717   -1.416606   -1.333929
O      1.944424   -0.301542    0.160658
H      3.420618   -0.148750    2.388079
H      4.313346    1.418106    4.141023
H      3.955310    2.946468   -0.478972
H     -3.631890    1.732859   -3.551735
H     -3.765445    0.557457    0.507922
H     -1.950549   -2.784171    3.493455
H     -4.955117   -2.589417    0.451207
H      4.006535   -1.858864    0.815719
H      4.805215   -2.538595   -0.685656
H      0.990443   -4.771591   -2.326092
H      4.129203   -0.532496   -1.909720
H     -0.360629    0.000618    0.026640
H     -0.932386   -0.598495   -2.739176
H      2.821938    1.102789   -1.086754
H     -3.143796   -0.426668   -3.052534
H     -4.481750   -4.381003    2.996953
H      5.387098    4.787214    3.560538
H      3.452892   -5.230241   -2.130661
H      5.255346    5.445498    1.684344
H      0.241010   -1.873401    2.961872
H     -1.320614   -4.207606   -2.439783
H     -4.637343    3.857441   -4.121186
H     -5.491562    3.458025    1.658673
H      5.743471   -0.464870    0.359832
H     -5.863293    5.195465   -1.255780
H     -0.962003    1.551598   -0.944323
