35

C     -3.738664   -0.621956   -0.458909
C     -3.032767    1.493039    1.565061
C     -3.033745   -0.888629    0.846854
C      0.869561   -0.278582   -0.867133
C      1.727764    0.809704   -0.333168
C     -0.228410   -0.609937    0.116332
C      2.851001    1.187996   -1.281751
C     -1.093701    0.591631    0.368426
C      3.758930    0.016145   -1.560605
C     -2.188525    0.236503    1.336187
C      4.389036   -0.495832   -0.317182
O      5.571008   -0.232961    0.004797
O      3.635385   -1.296184    0.521527
H     -4.680931   -0.034840   -0.310242
H     -4.057126   -1.603373   -0.894023
H     -3.104133   -0.093341   -1.173294
H     -2.423790    2.143740    2.214105
H     -3.962552    1.243256    2.070269
H     -3.209419    2.022937    0.609657
H     -3.828501   -1.098558    1.626713
H     -2.476752   -1.827468    0.761641
H      0.377146    0.058414   -1.811222
H      1.429790   -1.200219   -1.133858
H      2.155279    0.604437    0.657205
H      1.126268    1.760968   -0.234367
H      0.272004   -0.934301    1.080389
H     -0.834037   -1.465946   -0.252442
H      2.397184    1.620564   -2.180508
H      3.429251    1.982234   -0.771246
H     -1.498849    0.964019   -0.587612
H     -0.506744    1.435931    0.816394
H      3.297302   -0.808461   -2.086218
H      4.597011    0.417389   -2.206754
H     -1.744963   -0.006059    2.316012
H      3.759690   -1.205041    1.548964
