56

C     -5.964698   -1.546283    0.814810
C     -4.839874   -3.162189    2.060173
C      7.972985   -0.192558    1.555182
C     -0.978143    4.956016   -2.920474
C      0.275455    4.392287   -2.808937
C     -2.056834    4.249125   -2.435399
C      0.495367    3.162184   -2.237925
C      3.940169   -1.739249   -0.757158
C      3.697252    0.038460    0.788816
C     -2.926838    2.326583   -1.386154
C      5.306357   -1.772865   -0.475798
C      5.068142   -0.007305    1.060189
C     -2.777632    1.066288   -0.792551
C     -3.593578   -1.212322    1.344918
C     -2.837271   -1.450544    0.088261
C     -1.847096    3.006655   -1.857060
C      3.143438   -0.826161   -0.116258
C      5.881591   -0.914402    0.428407
C     -0.590249    2.457238   -1.752853
C     -1.537953    0.503909   -0.679856
C      0.884034   -1.002783    0.838126
C      1.684653   -0.791899   -0.414691
C     -0.418289    1.201664   -1.164447
C     -0.448745   -1.483154    0.459541
N     -4.825670   -1.822907    1.512452
N     -1.596655   -0.773340   -0.055387
O      0.839663    0.170468    1.583762
O     -0.702153   -2.706783    0.577620
O      7.229825   -0.976574    0.680266
S      1.281590    0.768107   -1.172173
H     -5.989932   -0.744134    0.066621
H     -6.338007   -2.468187    0.282267
H     -6.806826   -1.298082    1.531689
H     -5.483895   -3.177451    2.966498
H     -3.806306   -3.519651    2.293253
H     -5.255088   -3.848525    1.298305
H      8.664047    0.441307    0.923948
H      7.395153    0.482155    2.193479
H      8.674495   -0.793997    2.191397
H     -1.111333    5.941985   -3.384212
H      1.111769    4.957867   -3.193779
H     -3.040522    4.687393   -2.519551
H      1.467939    2.706097   -2.142669
H      3.472555   -2.408432   -1.467227
H      3.080154    0.768661    1.305531
H     -3.948340    2.690770   -1.430092
H      5.888073   -2.509989   -1.007099
H      5.430032    0.706049    1.785884
H     -3.639874    0.546649   -0.426051
H     -3.605847   -0.166208    1.690483
H     -2.950285   -1.733874    2.158166
H     -2.672134   -2.583579    0.097543
H     -3.474199   -1.191641   -0.765753
H      1.360734   -1.786000    1.464390
H      1.429717   -1.599892   -1.132725
H      0.389077   -0.016956    2.454303
