35

C     -4.687791   -0.541944    1.191439
C     -3.121799   -0.020195   -1.165600
C     -3.193550   -0.314666    1.248276
C      0.936271    0.823861    0.316394
C      1.646459    0.325925   -0.900988
C     -0.566330    0.729453    0.235475
C      3.143665    0.434753   -0.792765
C     -1.029196   -0.675081    0.049143
C      3.695957   -0.365777    0.378133
C     -2.532712   -0.796487   -0.029784
C      5.167382   -0.175083    0.374147
O      5.914594   -0.800212   -0.414694
O      5.730339    0.720067    1.268214
H     -4.978426   -1.284083    0.415956
H     -4.985317   -0.896199    2.215446
H     -5.200455    0.393719    0.934260
H     -2.568130   -0.158660   -2.103497
H     -4.193233   -0.336225   -1.258517
H     -3.160907    1.055192   -0.851951
H     -3.024018    0.791593    1.364899
H     -2.730948   -0.763943    2.157791
H      1.238551    0.148972    1.169143
H      1.265383    1.853404    0.535101
H      1.357894    1.010051   -1.747235
H      1.402285   -0.690667   -1.200980
H     -0.982073    1.203090    1.143319
H     -0.876583    1.371709   -0.620137
H      3.447091    1.481314   -0.760227
H      3.560311   -0.047469   -1.715661
H     -0.679919   -1.297139    0.896267
H     -0.552100   -1.092474   -0.859199
H      3.273675   -0.034206    1.337752
H      3.516917   -1.448232    0.247131
H     -2.794608   -1.865201   -0.167964
H      6.561324    1.260840    1.029087
