45

C     -3.773790   -0.909927    1.449153
C     -1.405008   -1.216077    1.877027
C     -1.699137    1.555386   -1.947577
C      3.473843    1.628999    1.031669
C      5.669132    0.842441    0.448719
C      2.106992    1.484271    0.935448
C      6.434601   -0.088304   -0.229665
C     -3.521523   -1.491408   -1.259638
C     -3.547049   -0.008691   -1.617288
C      2.384139   -0.424059   -0.447391
C     -0.748876    1.130375    0.697068
C      4.300087    0.741591    0.384275
C      1.562063    0.464854    0.201062
C      3.752439   -0.283771   -0.354392
C     -2.149887    0.657490    0.363486
C     -2.247906   -1.558196   -0.429112
C      5.794477   -1.068506   -0.935067
C     -2.387655   -0.758700    0.849521
C     -2.199731    0.446478   -1.130886
O      6.486623   -1.930977   -1.563581
O      0.190852    0.277365    0.073911
O      4.484177   -1.172683   -1.002285
O     -1.419657   -0.729558   -1.223552
H     -3.689544   -0.792035    2.569623
H     -4.150768   -1.948463    1.306455
H     -4.474906   -0.134595    1.120273
H     -1.403118   -0.499263    2.729369
H     -0.412246   -1.468586    1.500009
H     -1.837120   -2.162110    2.319820
H     -1.617510    1.179195   -3.010256
H     -0.775544    2.036059   -1.613988
H     -2.477071    2.345868   -1.994997
H      3.915208    2.443181    1.618175
H      6.121117    1.636797    1.020815
H      1.441405    2.172419    1.437640
H      7.527472   -0.007420   -0.177957
H     -3.321496   -2.059136   -2.186531
H     -4.409434   -1.808282   -0.712071
H     -3.582298    0.117922   -2.711972
H     -4.393091    0.522045   -1.186521
H      1.949395   -1.230863   -1.028585
H     -0.537180    1.086528    1.789774
H     -0.636513    2.185287    0.411069
H     -2.919955    1.353271    0.721038
H     -1.856007   -2.556216   -0.298640
