45

C     -2.951747   -1.384606   -2.240277
C     -1.564091   -2.059543   -0.348494
C     -1.666742    2.261421    0.713888
C      3.481701   -0.806361    2.047637
C      5.732569   -0.371144    1.294836
C      2.117487   -0.754282    1.821193
C      6.578230    0.113613    0.317643
C     -4.540540    0.254751   -0.460033
C     -3.778895    1.587963   -0.467265
C      2.498215    0.233846   -0.282813
C     -0.240189    0.355821   -0.775048
C      4.365679   -0.331856    1.095812
C      1.584114   -0.231062    0.645760
C      3.861389    0.190782   -0.075942
C     -1.713174    0.380250   -0.950655
C     -3.518663   -0.677150    0.100032
C      6.001086    0.621773   -0.828907
C     -2.395612   -0.941451   -0.911911
C     -2.446659    1.174280    0.093507
O      6.764337    1.071983   -1.738312
O      0.213479   -0.183281    0.428078
O      4.698142    0.647924   -0.994190
O     -2.828755    0.163493    1.001188
H     -3.264086   -0.542524   -2.863050
H     -2.111021   -1.923373   -2.764852
H     -3.786606   -2.090747   -2.031558
H     -0.638190   -2.253204   -0.904595
H     -1.370073   -1.924275    0.754538
H     -2.182001   -2.981140   -0.414046
H     -1.030553    1.891234    1.540581
H     -1.130162    2.828019   -0.043966
H     -2.389323    2.976480    1.199356
H      3.911383   -1.210054    2.956062
H      6.155560   -0.780346    2.214620
H      1.432766   -1.127949    2.571705
H      7.657537    0.101208    0.434549
H     -4.847113   -0.000930   -1.494205
H     -5.364040    0.347948    0.249511
H     -3.617632    1.909302   -1.511445
H     -4.296642    2.339404    0.138537
H      2.110847    0.646626   -1.207372
H      0.203212   -0.193423   -1.627912
H      0.133333    1.397472   -0.850847
H     -1.933150    0.852933   -1.931774
H     -3.895404   -1.579825    0.558604
