38

C      2.675177   -1.411459    0.846743
C     -2.786463   -2.434310    0.609685
C     -2.321185   -1.002352   -1.395297
C      1.996481    2.565630    0.510965
C      2.342202    1.119207    0.823603
C      0.616544    2.915192    0.889656
C      1.583749   -0.525832   -1.022273
C      0.491428   -1.486369   -0.929411
C     -0.771402    0.914667    0.469511
C     -1.083622    2.933519   -0.870442
C      2.210562   -0.038678    0.287545
C     -0.486667    2.114658    0.170721
C     -0.356373   -1.572531    0.257548
C     -1.093108   -0.440958    0.807011
C     -1.842872   -1.424696   -0.039087
O     -1.982885    2.633515   -1.674081
H      3.698947   -1.551454    1.083763
H      2.016781   -1.772791    1.649513
H      2.514522   -2.198878    0.033819
H     -3.786824   -2.395388    0.158636
H     -2.368573   -3.434718    0.468785
H     -2.884064   -2.141733    1.687577
H     -1.746524   -0.250404   -1.915657
H     -3.376701   -0.629112   -1.360126
H     -2.326031   -1.933602   -2.029360
H      2.624766    3.267726    1.168101
H      2.220995    2.937695   -0.481234
H      2.844286    1.330211    1.872484
H      0.487843    3.997541    0.725261
H      0.498243    2.807522    2.001769
H      2.437950   -1.055885   -1.608222
H      1.290845    0.234622   -1.742262
H     -0.156894   -1.357080   -1.852152
H      0.903866   -2.527687   -1.108345
H     -1.842087    0.962538   -0.359092
H     -0.713589    3.963560   -0.993824
H     -0.137710   -2.457528    0.943885
H     -1.391614   -0.654355    1.914284
