48

C      4.596876    1.826915   -1.492873
C     -2.967514    3.520612   -1.784206
C      3.228529    1.648906   -1.473961
C      5.402725    0.764666   -1.837584
C     -3.701351    3.129671   -0.677593
C     -1.875879    2.766668   -2.103882
C     -2.937864    0.932219    3.826577
C     -3.088386   -0.347419    4.365479
C      2.669033    0.418707   -1.797041
C      4.846970   -0.441249   -2.153890
C     -3.363366    2.031831    0.082106
C     -1.541405    1.687380   -1.356795
C     -2.467446    1.028930    2.539065
C     -2.782577   -1.498266    3.655692
C      2.919827   -1.958747   -2.488018
C      3.465450   -0.642767   -2.141005
C     -2.275540    1.284650   -0.235544
C     -2.173637   -0.128048    1.850141
C     -2.316707   -1.397541    2.380274
C     -1.724207    0.165558    0.494929
C     -0.039657   -1.665844    0.434579
C     -0.945068   -2.725445    0.879424
C      2.075793   -2.604054   -0.269274
N     -1.945000   -2.636354    1.726147
N     -0.757782   -0.482465   -0.106465
N      0.942654   -2.048616   -0.495362
O     -0.748892   -4.024264    0.351734
O      2.511533   -2.922092    1.010330
O      2.839607   -2.864777   -1.416711
H      5.063599    2.773756   -1.246049
H     -3.225179    4.384546   -2.390103
H      2.618133    2.486877   -1.203324
H      6.495377    0.857871   -1.866680
H     -4.567102    3.742915   -0.439341
H     -1.294063    3.060155   -2.966950
H     -3.183983    1.817086    4.399320
H     -3.456321   -0.438731    5.371017
H      1.601941    0.350873   -1.762991
H      5.506511   -1.260704   -2.421744
H     -4.010157    1.733110    0.903754
H     -0.667796    1.119701   -1.647806
H     -2.292508    2.008073    2.123581
H     -2.896455   -2.490030    4.068798
H      1.957762   -1.875912   -3.045916
H      3.633793   -2.420062   -3.228403
H      0.474587   -1.263962    1.351239
H     -1.521974   -4.672972    0.402583
H      1.917115   -2.731355    1.832748
