26

C     -3.251193   -0.220897   -0.255258
C     -0.416460   -1.162927   -0.814496
C     -2.543333    0.443868    0.865451
C     -1.128332    0.772289    0.641788
C      1.202717    0.335625    0.359484
C      2.342461   -0.609474    0.286800
C     -0.161044   -0.337490    0.387611
C      3.597350    0.220611    0.270051
O      4.705930   -0.340482    0.211707
O      3.573712    1.607754    0.317551
H     -3.468091   -1.308194   -0.037580
H     -2.803838   -0.100944   -1.253987
H     -4.306127    0.197394   -0.379933
H      0.472204   -1.834691   -0.972513
H     -0.553612   -0.522196   -1.706659
H     -1.279215   -1.818909   -0.661842
H     -3.084781    1.420334    1.077196
H     -2.616809   -0.157731    1.805473
H     -0.970049    1.523420   -0.184322
H     -0.704236    1.326750    1.545195
H      1.282067    0.908737    1.302358
H      1.212909    0.991425   -0.518559
H      2.381394   -1.260992   -0.586818
H      2.394391   -1.249671    1.196201
H     -0.166511   -1.016321    1.293872
H      4.288492    2.192711   -0.094503
