26

C     -3.351673    1.314338    0.384909
C      0.048630   -2.143534   -0.331323
C     -1.957879    1.058102   -0.165994
C     -1.586437   -0.393611    0.002440
C      0.836022    0.161833    0.193820
C      2.227536   -0.216504   -0.329807
C     -0.212790   -0.640921   -0.556232
C      3.249224    0.553403    0.388141
O      2.906964    1.364650    1.272825
O      4.605139    0.387562    0.091097
H     -3.484656    2.328504    0.765556
H     -4.058790    1.098747   -0.455910
H     -3.578466    0.546885    1.161147
H      0.357732   -2.277601    0.718659
H      0.834793   -2.467073   -1.027026
H     -0.903813   -2.655676   -0.552758
H     -1.203312    1.667994    0.395383
H     -1.908990    1.311028   -1.242273
H     -1.572527   -0.632938    1.096486
H     -2.327641   -1.049052   -0.487487
H      0.722487   -0.050711    1.259750
H      0.700250    1.232079   -0.016342
H      2.240545    0.038032   -1.413307
H      2.373420   -1.311384   -0.179706
H     -0.184111   -0.383548   -1.617261
H      5.228343    1.159395    0.311926
