92

C      8.194780   -3.248664   -1.180121
C      7.390397   -3.461516   -2.396471
C     -7.265993   -3.176332    3.221494
C     -7.348156   -1.803050    3.765141
C      3.685363    0.632597    2.704502
C     -4.064377    0.490626   -3.164668
C      3.494036    1.964736    3.075517
C     -3.772445    1.754451   -3.694644
C      4.625256    1.262236   -1.572417
C     -4.687248    1.582446    1.061533
C      5.547118    0.194444   -1.020997
C     -5.379944    0.414696    1.699565
C      3.750725   -1.113839    0.909947
C     -4.222471   -1.009731   -1.183962
C      1.382569   -0.596878   -0.963003
C     -1.627504   -0.507143    0.253815
C      5.952657   -2.105075   -0.722145
C     -5.522855   -1.927680    1.889470
C      7.152069   -2.205194   -1.635853
C     -6.971763   -2.009493    2.306492
C      3.611423    0.260261    1.387717
C     -3.950413    0.275013   -1.814670
C      0.568104    0.594333   -0.626818
C     -0.735336    0.631471   -0.091759
C      3.222620    2.927723    2.091780
C     -3.365983    2.789114   -2.843259
C      3.707845   -1.274687   -0.567583
C     -4.014409   -1.039994    0.310142
C      3.348393    1.242197    0.485964
C     -3.554230    1.316520   -1.050933
C      0.984926    1.890932   -0.786824
C     -1.053570    1.947632    0.051621
C      3.144347    2.573976    0.768595
C     -3.251126    2.575184   -1.490468
C      2.353625    2.195471   -1.342348
C     -2.386356    2.382967    0.609846
C      3.266182    1.055082   -0.981291
C     -3.384532    1.285577    0.417609
C      2.782507   -0.300735   -1.294856
C     -2.928895   -0.075502    0.789161
N     -0.001900    2.681326   -0.373915
N      5.023377   -1.128397   -1.177328
N     -5.251781   -0.817464    1.022664
O      3.029522    4.252364    2.442893
O     -3.064075    4.057447   -3.309172
O      2.979062   -0.603045   -2.668754
O     -2.910687   -0.248652    2.195091
O      2.896100    3.213985   -0.461463
O     -2.884927    3.333408   -0.361529
H      9.269628   -2.934105   -1.280587
H      7.978255   -3.852902   -0.291149
H      7.895036   -3.391580   -3.369705
H      6.591722   -4.261807   -2.394757
H     -8.213280   -3.726247    3.121448
H     -6.436133   -3.811023    3.592792
H     -6.583640   -1.505174    4.490732
H     -8.359520   -1.395522    3.974425
H      3.892768   -0.089667    3.500217
H     -4.372121   -0.282876   -3.838817
H      3.544771    2.298938    4.099768
H     -3.850042    1.965874   -4.752857
H      5.033597    2.255920   -1.296046
H      4.578559    1.155179   -2.680099
H     -5.368939    2.119883    0.344692
H     -4.497712    2.326027    1.890127
H      5.753897    0.440518    0.053934
H      6.490979    0.285147   -1.574219
H     -5.108295    0.295650    2.766063
H     -6.478353    0.679261    1.714581
H      4.695129   -1.515302    1.320821
H      2.947316   -1.708852    1.429342
H     -5.297005   -1.269346   -1.416547
H     -3.641749   -1.819086   -1.697398
H      1.339529   -1.358293   -0.136080
H      0.857669   -1.104173   -1.819539
H     -1.784245   -1.181191   -0.618504
H     -1.082802   -1.138144    1.000387
H      6.391679   -1.829736    0.285091
H      5.522547   -3.128131   -0.639747
H     -5.180615   -2.907651    1.444867
H     -4.924525   -1.819149    2.830104
H      7.565147   -1.293159   -2.072725
H     -7.783301   -1.829353    1.571085
H      3.370203   -2.292149   -0.818542
H     -3.620882   -2.059326    0.550630
H      2.357066    2.464369   -2.374525
H     -2.312596    2.801148    1.610946
H      0.019821    3.720973   -0.374139
H      2.835481    4.937869    1.731610
H     -3.101871    4.353188   -4.255503
H      2.535829   -1.481493   -2.797487
H     -1.961028   -0.239651    2.492003
