50

C      4.800150    1.366867   -0.933951
C      5.163173   -0.116595    0.932934
C     -3.380753    1.430586   -0.484749
C     -3.792594    0.886941    1.837092
C     -3.147398   -1.855381   -0.700649
C      0.256884    1.591645    0.967532
C     -1.025217    1.091217    1.545996
C     -3.829395   -0.944664    0.237516
C     -1.643582   -1.950027   -0.573100
C      2.418830    0.654536    0.127675
C      1.183566   -1.581493   -0.827091
C     -1.250136    0.150893   -1.666028
C      4.655959   -0.125740   -0.524485
C      1.041321    0.535434    0.240450
C      3.163497   -0.308266   -0.443613
C      0.427968   -0.588031   -0.252929
C      2.576627   -1.459079   -0.933575
C     -1.704419    0.030996    0.804923
C     -3.176262    0.363186    0.526382
C     -1.036575   -0.578318   -0.360312
O     -1.772334   -0.352309   -2.617539
O      3.377400   -2.416222   -1.503969
H      5.169579    1.997815   -0.163262
H      5.440106    1.318696   -1.846533
H      3.798099    1.758426   -1.295379
H      6.238950   -0.358833    0.940606
H      5.034350    0.931256    1.351139
H      4.538208   -0.767443    1.546533
H     -2.592959    2.191620   -0.552288
H     -4.299605    2.048744   -0.174330
H     -3.714486    0.992598   -1.440900
H     -3.754631    1.996512    1.817018
H     -4.902619    0.664832    1.848671
H     -3.281910    0.492839    2.719453
H     -3.543647   -2.883164   -0.549429
H     -3.477402   -1.598248   -1.749838
H      0.143046    2.524393    0.390078
H      0.936378    1.880128    1.841133
H     -1.727262    1.982510    1.590573
H     -0.875383    0.851278    2.631107
H     -4.844212   -0.711294   -0.177731
H     -4.054237   -1.426114    1.226709
H     -1.349484   -2.681515    0.180010
H     -1.287425   -2.327975   -1.562618
H      2.893097    1.554839    0.520404
H      0.770564   -2.507144   -1.223823
H     -0.909468    1.163078   -1.719031
H      5.134720   -0.821054   -1.162873
H     -1.823881   -0.838215    1.545200
H      3.034805   -3.254741   -1.929109
