55

C     -4.982139    2.158399    0.469511
C     -2.517744   -3.511083    0.632627
C      0.199978    4.026242   -1.308532
C      6.512348   -1.597693    0.124182
C      4.107476    2.070124    0.680028
C     -4.539101    1.446339   -0.786493
C     -2.752933   -2.183829   -0.055776
C     -3.922424    0.099540   -0.521386
C      2.420053   -2.650789    0.622967
C      3.742332   -2.319018    0.472524
C     -1.328146    2.248195   -0.515390
C      1.054008    1.861768   -0.544817
C      0.023776   -2.119102    0.522633
C     -0.051788    2.672223   -0.774426
C      1.435452   -1.671428    0.428164
C     -1.615056    0.997535   -0.010182
C      0.795136    0.603018   -0.035889
C     -2.760510    0.185598    0.378590
C     -0.845710   -1.023698    0.911237
C      4.117192   -1.029725    0.132845
C      1.842653   -0.399547    0.091255
C     -0.506484    0.207766    0.217841
C      3.143585   -0.037644   -0.062569
N     -2.261201   -1.133287    0.767355
O      5.445640   -0.693875   -0.019548
O      3.651732    1.201043   -0.388068
H     -4.222406    2.876039    0.850421
H     -5.233920    1.371546    1.212437
H     -5.925866    2.721626    0.308524
H     -1.741304   -4.143451    0.161779
H     -2.249933   -3.390396    1.703021
H     -3.486671   -4.095568    0.666258
H     -0.339569    4.233647   -2.252206
H     -0.253549    4.738288   -0.555032
H      1.271922    4.282059   -1.340452
H      6.745392   -1.618567    1.229912
H      7.430991   -1.241885   -0.392236
H      6.298855   -2.622059   -0.180976
H      3.883631    3.108690    0.350808
H      3.658031    1.786111    1.633791
H      5.211479    1.939936    0.661622
H     -5.545891    1.219879   -1.318897
H     -4.023783    2.048818   -1.523323
H     -3.774234   -2.113738   -0.416876
H     -2.123640   -2.254083   -1.003044
H     -4.722056   -0.464102    0.038972
H     -3.730415   -0.363670   -1.506195
H      2.139656   -3.664523    0.893189
H      4.486588   -3.084079    0.627360
H     -2.145418    2.940907   -0.700205
H      2.000685    2.189248   -0.791871
H     -0.186249   -2.517885   -0.516875
H     -0.002764   -3.013211    1.207168
H     -3.122316    0.622519    1.363884
H     -0.705372   -0.899172    2.046335
