23

C     -0.304770    0.917976    0.103662
C     -0.016565   -0.339353    0.936057
C     -1.722043    0.852425   -0.299215
C      2.060573    0.967006   -0.284266
C      2.296623   -0.129021    0.419600
C     -1.297327   -1.085474    0.942822
C      0.712818    0.811720   -0.970528
C      1.126760   -1.027126    0.260239
C     -2.303000   -0.364021    0.361537
C      0.810750   -0.703623   -1.213539
Cl    -2.547154    2.310933    0.357670
Cl     3.041279    2.398650   -0.470214
Cl     3.709477   -0.467835    1.360780
Cl     0.510461    1.759098   -2.373973
Cl     1.368008   -2.680658    0.598663
Cl    -3.863630   -0.982572   -0.189573
Cl    -0.616101   -1.440806   -1.824601
Cl     2.264913   -0.986055   -2.168232
O     -2.249292   -0.283658    1.795793
H     -0.049015    1.785615    0.745386
H      0.293916   -0.079890    1.963859
H     -1.915521    0.870290   -1.379614
H     -1.311159   -2.103619    1.327688
