30

C     -1.963709    1.221976   -1.075873
C      2.132157   -0.563524    1.377144
C      0.713278   -0.279105    1.076484
C      3.207928   -0.200387    0.442105
C     -2.109327    0.319597    0.120799
C      0.018998   -0.862369   -0.052777
C     -3.563801    0.047079    0.242567
C      0.391232   -0.609311   -1.437375
N      3.301973    1.205750    0.143412
N     -1.419531   -0.902933    0.036814
O     -3.943656   -1.149148    0.268347
O     -4.517184    1.047910    0.328794
O     -0.438241   -1.072529   -2.320292
O      1.458982    0.032629   -1.971708
H     -2.463412    2.193995   -0.803337
H     -2.522523    0.845559   -1.956453
H     -0.946718    1.444968   -1.383529
H      2.343746   -0.002631    2.359920
H      2.279782   -1.639206    1.715059
H      0.666623    0.880090    1.057215
H      0.152683   -0.563858    2.037480
H      3.355914   -0.790165   -0.451549
H      4.186912   -0.393562    1.047477
H     -1.856720    0.876913    1.075999
H      0.262302   -2.019821    0.050159
H      2.536649    1.752900    0.550228
H      4.247630    1.611639    0.237356
H     -1.856001   -1.626837   -0.552932
H     -5.400357    0.820467    0.759718
H      1.744392   -0.141765   -2.921253
