39

C      3.265472    0.761676    0.347910
C      1.763161    2.070877   -0.951995
C     -3.923401    1.279579   -1.103436
C      1.212806   -1.943005   -1.014808
C      1.425733   -1.726294    1.443547
C      1.370856   -0.362769    2.075667
C     -2.468062    0.508436    0.753257
C     -1.926860   -0.366881   -1.384198
C     -1.328939   -0.320675    1.176751
C     -0.511709    0.186304   -1.064403
C      2.011533    1.086480    0.170134
C     -2.814296    0.510294   -0.527103
C      0.500946   -1.658975    0.274870
C      0.926393    0.585071    0.999495
C     -0.108220   -0.258350    0.300824
H      4.081194    1.174364   -0.271847
H      3.544594    0.059977    1.113442
H      1.034438    2.845089   -0.638519
H      2.707473    2.679077   -1.139941
H      1.574396    1.595492   -1.912002
H     -4.515726    1.711355   -0.283723
H     -3.591993    2.115345   -1.753872
H     -4.613804    0.630670   -1.693064
H      1.875793   -2.836270   -0.817536
H      1.888149   -1.145601   -1.347278
H      0.499900   -2.284836   -1.791273
H      1.119790   -2.490333    2.197221
H      2.433431   -2.037714    1.110507
H      2.344600   -0.112749    2.501251
H      0.674870   -0.350477    2.958266
H     -3.053385    1.128847    1.430744
H     -2.015159   -1.413418   -1.045964
H     -2.095509   -0.212165   -2.448972
H     -1.673253   -1.400740    1.223964
H     -1.137950   -0.069912    2.242208
H      0.112913   -0.278317   -1.854418
H     -0.633933    1.265121   -1.123227
H     -0.335216   -2.387199    0.359980
H      0.378975    1.462624    1.487545
