30

C     -2.707723    1.306024    1.425912
C      1.773887   -0.670063    1.269188
C      1.406131   -0.538325   -0.160780
C      3.059690   -1.527625    1.296987
C     -2.089922    0.810884    0.097392
C      0.188491    0.305307   -0.453392
C     -3.119597    0.100016   -0.671748
C     -0.032877    0.335477   -1.921761
N      4.071042   -0.793273    0.550170
N     -0.903320    0.101395    0.356614
O     -2.730397   -1.117528   -1.042042
O     -4.339235    0.424571   -1.068029
O     -0.995752    1.003105   -2.368898
O      0.763717   -0.342228   -2.805860
H     -3.023249    0.438532    2.038966
H     -1.941176    1.905062    1.926117
H     -3.589789    1.907076    1.142516
H      0.991292   -1.111670    1.923221
H      2.051716    0.290497    1.739020
H      1.302046   -1.518907   -0.681261
H      2.295281   -0.057884   -0.678588
H      3.377657   -1.791145    2.300400
H      2.802331   -2.439666    0.725102
H     -1.883464    1.791672   -0.451269
H      0.559296    1.379632   -0.249927
H      3.869736    0.225787    0.551814
H      4.166717   -1.148513   -0.445201
H     -0.908331   -0.502366    1.163569
H     -4.756874    0.308467   -1.991337
H      0.342677   -0.919855   -3.516896
