38

C      0.502494   -0.066666    1.570262
C      5.357957    1.897091    0.086565
C     -6.258859    1.248092   -0.804877
C      5.918622    0.636639    0.204759
C      4.008376    2.043709   -0.151929
C     -6.326637   -0.011202   -0.246100
C     -4.996767    1.786478   -0.952284
C      5.098786   -0.456480    0.078707
C      3.180322    0.916220   -0.278862
C     -5.218700   -0.723412    0.154968
C     -3.878407    1.093752   -0.559164
C      0.510291   -1.040261   -0.716969
C     -0.296633   -0.863472    0.582802
C      3.719924   -0.331370   -0.164583
C     -3.986605   -0.167106   -0.002685
C      2.894660   -1.529430   -0.289138
C     -2.748324   -0.860186    0.399521
N      1.719263   -1.585208   -0.494916
O      3.582060   -2.787210   -0.146644
O     -2.827766   -2.004097    0.905897
O     -1.519984   -0.285882    0.233422
H      0.001396   -0.131873    2.569292
H      1.507831   -0.461549    1.701171
H      0.483564    1.015488    1.272841
H      5.986981    2.781274    0.182542
H     -7.153186    1.799064   -1.117911
H      6.965718    0.563684    0.389157
H      3.542398    3.026527   -0.249130
H     -7.320785   -0.440284   -0.127761
H     -4.889906    2.789534   -1.393434
H      5.525710   -1.440558    0.169086
H      2.137647    1.095727   -0.463642
H     -5.278637   -1.712148    0.593213
H     -2.880003    1.536966   -0.683519
H     -0.107285   -1.755352   -1.382245
H      0.428595   -0.093679   -1.327354
H     -0.418589   -1.884031    1.030887
H      3.034480   -3.598790    0.065457
