20

C     -1.866996   -1.191511    0.233336
C     -0.008845    2.036227   -0.580394
C     -1.478447    0.246049    0.233220
C      1.578243   -0.336254    0.790949
C      2.601449   -1.263708    0.604189
C     -0.307387    0.557929   -0.663807
C      0.864325   -0.279483   -0.381730
N      1.460804   -1.147095   -1.212261
O      2.482053   -1.720269   -0.620612
H     -1.738002   -1.664248   -0.780762
H     -1.306337   -1.802626    0.971956
H     -2.945395   -1.263802    0.485643
H     -0.839221    2.595269   -0.080046
H      0.094276    2.502700   -1.585600
H      0.907711    2.269856   -0.024984
H     -2.368465    0.857588   -0.011613
H     -1.194110    0.525285    1.276824
H      1.389773    0.220753    1.677733
H      3.322065   -1.508521    1.374027
H     -0.647493    0.365861   -1.706069
