32

C      2.635063   -0.837518   -1.110939
C      3.277234   -0.156185    0.079246
C      1.234083   -1.251679   -0.637880
C     -2.723818   -1.343608    0.842181
C     -3.311031    0.408557   -0.657003
C     -1.376160   -1.162294    0.551796
C     -1.964917    0.575020   -0.934059
C     -5.079715   -0.762430    0.552451
C      2.645720    1.996758    1.348246
C      0.545907    2.082184    0.763752
C     -3.696597   -0.551422    0.232294
C     -0.996228   -0.206231   -0.333484
C      2.338576    0.917617    0.521303
C      0.418468    0.023643   -0.673402
N     -6.192090   -0.951805    0.816262
N      1.500873    2.695113    1.472266
N      1.061426    0.982095    0.174301
Cl     0.683990    0.000000    0.000000
H      2.535633   -0.060336   -1.901491
H      3.207949   -1.684410   -1.483943
H      3.357457   -0.877994    0.917407
H      4.248940    0.240281   -0.220118
H      1.292374   -1.603974    0.413383
H      0.815684   -2.035518   -1.297527
H     -3.023303   -2.095388    1.538377
H     -4.083536    1.027510   -1.132327
H     -0.643045   -1.789769    1.038465
H     -1.653737    1.341441   -1.644368
H      3.611386    2.226837    1.800010
H     -0.491666    2.442546    0.691032
H      0.509068    0.410958   -1.726229
H     -0.683990    0.000000    0.000000
