38

C     -0.028674   -1.787387    0.029547
C      6.712178   -0.340903    0.970041
C     -6.795908    1.063829   -0.494746
C      6.345407   -0.951944   -0.207375
C      5.729575    0.354106    1.678040
C     -5.809262    0.724862   -1.392417
C     -6.459311    1.122063    0.840709
C      5.050078   -0.880737   -0.673559
C      4.434366    0.410988    1.188183
C     -4.518352    0.451921   -0.956518
C     -5.167032    0.848162    1.270750
C      0.418621    0.673901   -0.187230
C     -0.474657   -0.399523    0.442823
C      4.059769   -0.197526    0.011424
C     -4.173788    0.508023    0.377414
C      2.686791   -0.111983   -0.466020
C     -2.820270    0.223069    0.846069
N      1.790554    0.517998    0.173205
O      2.323768   -0.732287   -1.657065
O     -2.570739    0.291023    2.069458
O     -1.787945   -0.121476    0.003034
H      0.990305   -1.944604    0.419603
H     -0.099725   -1.893264   -1.074816
H     -0.767280   -2.492413    0.452831
H      7.719776   -0.375938    1.366377
H     -7.814131    1.284226   -0.790228
H      7.101165   -1.488079   -0.754534
H      6.026674    0.831406    2.602537
H     -6.089064    0.683428   -2.436709
H     -7.216620    1.386972    1.574438
H      4.736343   -1.356103   -1.602340
H      3.668915    0.954006    1.742368
H     -3.763078    0.188867   -1.677495
H     -4.953386    0.908247    2.336832
H      0.240011    0.706086   -1.281048
H     -0.012197    1.647046    0.193187
H     -0.345314   -0.316546    1.526680
H      1.632438   -0.389515   -2.280767
