56

C     -8.570720   -0.750532   -1.239272
C      9.630360   -0.592764   -1.725172
C     -7.700798   -0.483662   -0.025811
C     -6.777673    0.664861   -0.214824
C      1.700820    0.721683    2.017556
C      1.003147    0.717794    0.665676
C      2.521937   -0.527375    2.157001
C      0.195162    1.941505    0.521279
C      3.579878   -0.625085    1.067418
C     -1.098159    1.862614    0.344258
C      4.525847    0.533196    1.104722
C     -5.808566    0.551806   -1.324420
C     -1.881967    0.648122    0.268229
C      5.532899    0.405957    0.001058
C     -4.867948   -0.598107   -1.247865
C     -3.201527    0.658893    0.085473
C      6.316923   -0.871133    0.175780
C     -4.018660   -0.553690    0.004667
C      7.320948   -0.919963   -0.952992
O     -3.236581   -1.716418    0.082366
O      6.941082   -1.275844   -2.079441
O      8.625129   -0.569306   -0.700796
H     -9.387204    0.013798   -1.322446
H     -7.966873   -0.663731   -2.152372
H     -9.097116   -1.724804   -1.157391
H      9.297827   -1.274063   -2.549941
H     10.612625   -0.857746   -1.314485
H      9.623207    0.427808   -2.160848
H     -7.217479   -1.405035    0.347395
H     -8.423290   -0.187748    0.792780
H     -6.243224    0.815588    0.766242
H     -7.392515    1.583307   -0.340707
H      2.270657    1.643357    2.151590
H      0.898238    0.675696    2.783320
H      1.795023    0.777432   -0.142588
H      0.451471   -0.200596    0.532801
H      1.845356   -1.398171    2.007065
H      3.024538   -0.530826    3.128048
H      0.644903    2.940212    0.556870
H      4.167477   -1.549526    1.332950
H      3.170799   -0.729241    0.063427
H     -1.692127    2.795852    0.236878
H      5.091286    0.596935    2.063637
H      4.006346    1.510258    0.948397
H     -6.335785    0.540658   -2.300073
H     -5.201245    1.493745   -1.343935
H     -1.453285   -0.333766    0.354688
H      5.017912    0.395500   -0.997982
H      6.239701    1.265270   -0.005592
H     -5.325549   -1.581961   -1.323796
H     -4.138493   -0.524951   -2.103968
H     -3.674947    1.621420   -0.005030
H      5.668472   -1.786511    0.079029
H      6.809352   -0.925985    1.160206
H     -4.742803   -0.642236    0.860929
H     -3.074791   -2.002490    1.011088
