30

C     -0.352425    1.824592   -2.334573
C     -1.499077    2.450576   -1.539165
C      0.584557    1.237959   -1.269213
C      2.257151   -0.685456    2.059627
C      1.549532   -2.746923    1.160145
C      1.497836    0.015759    1.147564
C      0.789548   -2.041627    0.247378
C      3.116271   -2.767805    3.065679
C     -3.373270    1.321788   -0.161654
C     -2.280222   -0.487704    0.350136
C      2.302284   -2.065406    2.089446
C      0.744010   -0.663953    0.216942
C     -2.108740    1.369669   -0.710731
C     -0.096548   -0.032409   -0.796598
N      3.785670   -3.335991    3.845057
N     -3.463835    0.161394    0.494341
N     -1.434890    0.246685   -0.391231
H     -0.820119    0.963144   -2.883227
H      0.141101    2.531880   -2.994760
H     -2.205591    2.951374   -2.198592
H     -0.997734    3.139335   -0.809312
H      1.574891    1.017621   -1.660925
H      0.592962    1.967072   -0.437806
H      2.850835   -0.145673    2.793113
H      1.550842   -3.835532    1.142541
H      1.492004    1.110926    1.160518
H      0.218445   -2.638269   -0.458554
H     -4.169170    2.069260   -0.230437
H     -2.119039   -1.472286    0.807944
H     -0.127280   -0.696361   -1.703652
