20

C     -2.577308    1.381357   -0.096640
C      3.179176    0.415200    0.573948
C     -0.954891   -1.955194    0.455484
C     -1.914241   -0.933133    0.410830
C      0.336482   -1.673350    0.024266
C     -0.278973    0.537042   -0.465194
C     -1.568725    0.310784   -0.050888
C      0.693761   -0.434899   -0.439002
O      2.288671    1.159160   -1.810174
S      2.385851   -0.145766   -0.979373
H     -3.231374    1.393236    0.803086
H     -2.132387    2.386642   -0.250885
H     -3.287996    1.218424   -0.959236
H      4.264122    0.313937    0.403711
H      2.928379   -0.313214    1.397020
H      2.859004    1.434702    0.831885
H     -1.212558   -2.942675    0.817528
H     -2.898908   -1.208488    0.757546
H      1.082179   -2.459068    0.056386
H      0.039737    1.515301   -0.840966
