15

C      2.139729   -0.186805   -0.074564
C     -0.786851    1.409577   -0.496851
C     -1.164883   -0.938587   -0.070745
C     -0.134034    0.188177    0.070100
O     -0.375474    1.952408   -1.516333
O     -2.277230   -0.698242    0.722401
O      0.922453   -0.136167   -0.745569
H      2.037050   -0.966937    0.716137
H      2.913630   -0.536777   -0.787337
H      2.403072    0.750631    0.433340
H     -1.645949    1.854167   -0.023291
H     -0.662036   -1.848545    0.284414
H     -1.421436   -1.064065   -1.135224
H      0.122396    0.358653    1.113962
H     -2.070436   -0.137488    1.509560
