32

C     -3.914340   -0.616940   -1.537371
C      3.092318   -1.090656   -0.217966
C      2.348863   -0.521905   -1.379582
C      2.874046   -0.387023    1.082578
C      1.086096    0.212558   -0.981735
C      1.415904   -0.196289    1.427851
C     -0.938153    1.584181    0.803291
C     -3.060536   -0.243593   -0.367264
C      0.513928   -0.392553    0.254827
C     -0.861860    0.110728    0.579802
N     -1.793624   -0.230250   -0.470817
O     -0.617712    2.338257   -0.323907
O     -3.697086    0.080608    0.810835
H     -3.482101   -0.240721   -2.484657
H     -3.998615   -1.735346   -1.609352
H     -4.924159   -0.209293   -1.411572
H      4.178051   -1.030351   -0.449176
H      2.862213   -2.177855   -0.086969
H      2.959583    0.183557   -1.979625
H      2.119494   -1.373379   -2.074330
H      3.324302   -1.017822    1.881920
H      3.435085    0.568684    1.089100
H      1.399751    1.257337   -0.762029
H      0.376264    0.123382   -1.810957
H      1.285740    0.838596    1.804195
H      1.108073   -0.865563    2.269417
H     -0.420255    1.942378    1.714801
H     -2.028463    1.812829    0.998379
H      0.447871   -1.506235    0.084681
H     -1.245187   -0.370238    1.520517
H     -0.589661    3.276811   -0.074883
H     -3.255830   -0.123895    1.699998
