120

C    -13.288074    0.214112    3.366389
C     13.233865    1.122842    0.131148
C    -13.041443    0.797822    1.963087
C     12.542413    1.570280    1.380807
C    -13.245618   -0.257170    0.952617
C     11.141245    0.909394    1.387680
C    -12.530667   -1.510800    0.927757
C     10.395400    1.305959    2.610783
C    -11.141952   -1.733404    0.691776
C      9.032483    0.743800    2.734245
C    -10.012899   -1.253086    1.475037
C      7.984157    1.098720    1.786643
C     -9.665221    0.175851    1.551582
C      8.068849    0.812038    0.346526
C     -9.403955    0.787394    0.175720
C      8.232645   -0.611235   -0.060400
C     -8.238782    0.078602   -0.496459
C      7.120842   -1.539812    0.361882
C     -7.970862    0.635994   -1.869547
C      5.782206   -1.187566   -0.187234
C     -6.813466   -0.085982   -2.512700
C      4.661076   -2.115667    0.189601
C     -5.531067    0.072494   -1.732127
C      4.511148   -2.137461    1.690875
C     -5.128174    1.530674   -1.640408
C      3.409737   -2.991151    2.168536
C     -3.874042    1.669243   -0.846378
C      2.028709   -2.759333    1.747718
C     -2.687096    0.907244   -1.431584
C      1.335791   -1.492389    2.086548
C      4.913998   -1.869698   -4.430581
C      3.688765   -1.542841   -3.571337
C      0.494507    2.532748   -0.172553
C      2.065021    1.271902   -1.594511
C      1.588033    1.489646   -0.189365
C     -1.489048    1.131297   -0.535649
C      1.798955   -0.223317    1.589623
N      4.853285   -1.137320   -5.684326
O     -1.288739    0.405651    0.453766
O      2.662848    0.521365    2.091605
O      2.659603    1.006589   -4.350391
O      5.098565    0.765050   -3.451438
O     -0.638489    2.145580   -0.834101
O      3.170017    0.467140   -1.666061
O      1.225863    0.270539    0.396290
P      3.694528    0.230623   -3.260647
H    -13.685868    1.015145    4.020493
H    -12.341628   -0.156441    3.780144
H    -14.078724   -0.575420    3.310717
H     12.754618    0.192633   -0.249276
H     14.283141    0.863030    0.385494
H     13.196652    1.894323   -0.683617
H    -12.202758    1.471677    1.894672
H    -13.969505    1.507476    1.809404
H     13.073701    1.315701    2.294449
H     12.382981    2.684618    1.363959
H    -13.196429    0.280880   -0.084328
H    -14.387363   -0.465703    0.960980
H     11.388757   -0.181844    1.493778
H     10.655293    1.133287    0.463217
H    -13.116705   -2.165544    0.118002
H    -12.811362   -2.132821    1.891900
H     10.398619    2.436899    2.755676
H     11.053076    0.973097    3.482149
H    -10.883288   -1.460155   -0.437262
H    -11.034026   -2.917345    0.597123
H      8.654742    1.095286    3.766572
H      9.077804   -0.383825    2.931088
H    -10.110009   -1.604401    2.569902
H     -9.064743   -1.830609    1.169189
H      7.861151    2.242593    1.856865
H      6.960653    0.777640    2.190609
H    -10.236702    0.803672    2.173832
H     -8.614177    0.178831    2.066360
H      8.659072    1.472132   -0.285246
H      6.990407    1.067718   -0.042258
H    -10.307755    0.785332   -0.451494
H     -9.094676    1.836644    0.341873
H      8.212672   -0.611506   -1.192742
H      9.215038   -1.042321    0.195605
H     -7.357035    0.292248    0.146573
H     -8.392793   -1.017958   -0.562994
H      7.404957   -2.548745   -0.051320
H      7.106449   -1.675750    1.470019
H     -7.830319    1.725059   -1.889506
H     -8.861069    0.410900   -2.506803
H      5.444102   -0.156176    0.098891
H      5.791130   -1.174372   -1.317827
H     -7.061210   -1.180894   -2.511778
H     -6.696937    0.211740   -3.574244
H      4.876759   -3.126008   -0.224391
H      3.719713   -1.693317   -0.210936
H     -5.654597   -0.333806   -0.734278
H     -4.730943   -0.450063   -2.308090
H      4.606690   -1.128920    2.082613
H      5.471672   -2.648050    2.094560
H     -5.901189    2.169506   -1.207915
H     -4.909838    1.910651   -2.682692
H      3.421968   -2.893305    3.309804
H      3.697382   -4.095989    2.062099
H     -4.014600    1.456002    0.236116
H     -3.562387    2.754437   -0.924964
H      1.844867   -3.054879    0.665659
H      1.404333   -3.572688    2.278243
H     -2.879249   -0.178776   -1.486292
H     -2.442509    1.357666   -2.403991
H      0.208632   -1.626061    1.925703
H      1.355544   -1.448107    3.235962
H      4.938680   -2.943465   -4.653742
H      5.848951   -1.595651   -3.920945
H      2.794378   -1.871181   -4.165280
H      3.779656   -2.100528   -2.612785
H      0.866955    3.503709   -0.590568
H      0.221944    2.721153    0.907917
H      2.359205    2.262379   -2.023694
H      1.218854    0.851392   -2.179410
H      2.450510    1.959095    0.384186
H      5.502081   -0.327471   -5.690186
H      5.131045   -1.768035   -6.487392
H      1.740594    0.726791   -4.174593
