35

C      4.339662    2.247485    0.429089
C     -4.416449    0.955557    0.577687
C      0.986518   -2.380723   -1.421854
C     -3.809896   -0.271488    0.710408
C      0.323790   -2.839654   -0.149979
C     -3.775895    2.077054    0.126320
C      1.716481   -1.267702   -1.443472
C      3.648826    0.936044    0.528105
C     -2.474805   -0.376564    0.367056
C     -0.275279   -1.689251    0.631766
C     -2.423148    1.979117   -0.223266
C      1.812387   -0.555557   -0.162671
C     -1.798282    0.733293   -0.091554
C      0.402654   -0.377932    0.371348
C     -1.748239   -1.630373    0.467042
C     -0.397377    0.541880   -0.447619
O      4.114206    0.084262    1.291359
O     -1.723105    3.054323   -0.677197
O     -2.385853   -2.720694    0.413116
O      0.042645    1.180321   -1.441450
O      2.519864    0.639843   -0.193472
H      3.863344    2.918526   -0.305034
H      5.385596    2.024825    0.082636
H      4.452690    2.717955    1.428120
H     -5.469857    1.003658    0.856885
H      0.849181   -2.984412   -2.311628
H     -4.321029   -1.160936    1.068568
H      1.110689   -3.350427    0.459302
H     -0.428611   -3.588391   -0.383509
H     -4.251012    3.043768    0.020931
H      2.168819   -0.984178   -2.378239
H     -0.137265   -1.974060    1.720978
H      2.325003   -1.233822    0.553674
H      0.555607    0.121776    1.374040
H     -0.781858    3.126476   -0.936150
