30

C     -3.888202    2.558205    0.316234
C     -2.023763   -2.526272   -1.739297
C      4.133351   -1.077356    0.603125
C      3.422334   -1.247055   -0.574731
C      3.658706   -0.201874    1.552453
C      2.257487   -0.531038   -0.759539
C      2.505969    0.489742    1.339923
C      0.528231    1.062580   -0.095369
C     -2.746139    1.717342    0.726291
C      1.763747    0.356011    0.186709
C     -0.738021    0.409043    0.357511
C     -0.905365   -0.926139   -0.280092
O     -2.627502    1.442875    1.966907
O     -0.095908   -1.845464   -0.018835
O     -1.928128   -1.225529   -1.169195
O     -1.803258    1.208749   -0.123568
H     -4.319532    3.085729    1.182298
H     -3.518618    3.351286   -0.378197
H     -4.660481    1.978462   -0.227605
H     -2.416061   -2.434173   -2.769417
H     -2.703336   -3.108691   -1.112099
H     -0.991655   -2.956990   -1.752121
H      5.044882   -1.643616    0.737304
H      3.758682   -1.926425   -1.350962
H      4.242926   -0.096311    2.460682
H      1.732164   -0.692638   -1.699222
H      2.141620    1.169213    2.081691
H      0.585958    2.089956    0.317080
H      0.438217    1.204217   -1.210385
H     -0.848307    0.316162    1.432427
