50

C      6.973702   -0.822128    0.853120
C     -7.349869   -0.302662    1.322118
C     -0.949352   -2.180021   -0.322882
C      6.087796    0.191800    1.496551
C     -6.799531   -0.282595   -0.069241
C      5.355390    1.052082    0.487280
C     -5.382917   -0.815957   -0.147923
C      4.482961    0.205327   -0.409976
C     -4.512396    0.048744    0.725654
C      3.763972    1.090708   -1.405750
C     -3.067877   -0.396347    0.728686
C      2.890063    2.104280   -0.758488
C     -2.546225   -0.329180   -0.663910
C      1.798722    1.558142    0.116073
C     -1.104652   -0.747735   -0.793068
C      0.858010    0.731214   -0.659706
O      0.972467    0.611003   -1.896368
O     -0.201622    0.039635   -0.087215
H      6.580214   -1.851813    1.001114
H      7.068960   -0.592571   -0.232811
H      7.967403   -0.787707    1.325869
H     -7.089849   -1.251219    1.839962
H     -8.475365   -0.272523    1.249470
H     -7.045743    0.584038    1.883067
H     -0.631325   -2.222257    0.744930
H     -1.914461   -2.733641   -0.393484
H     -0.175104   -2.731133   -0.890149
H      6.702610    0.890905    2.102342
H      5.306706   -0.289779    2.131277
H     -6.903478    0.711472   -0.516332
H     -7.424202   -0.985798   -0.685440
H      4.743975    1.778526    1.083948
H      6.090744    1.564231   -0.169044
H     -5.117594   -0.718699   -1.242163
H     -5.385753   -1.868997    0.183881
H      3.760605   -0.412685    0.120989
H      5.173105   -0.443979   -0.995288
H     -4.597638    1.088924    0.323860
H     -4.934644    0.014914    1.743755
H      3.197698    0.490507   -2.125601
H      4.592678    1.612363   -1.980100
H     -3.041483   -1.408855    1.168757
H     -2.529610    0.319581    1.405644
H      3.452089    2.850580   -0.151417
H      2.465312    2.728397   -1.603355
H     -2.687254    0.702284   -1.044501
H     -3.126236   -1.084116   -1.268497
H      1.279007    2.371523    0.677014
H      2.318939    0.961855    0.910082
H     -0.888946   -0.770638   -1.901756
