35

C     -2.552820   -3.613582   -0.056195
C      4.451816   -1.516577    0.138701
C     -2.730536    3.652873    1.601600
C     -1.108489   -3.248240   -0.167664
C      4.452757   -0.176034   -0.516678
C     -2.596467    3.612238    0.093852
C      0.907197    1.119257   -0.033923
C     -0.434652    0.531196   -0.395086
C     -0.892684   -1.881480   -0.728805
C      2.051870    0.268103   -0.403432
C     -1.541862    1.455259    0.019676
O     -0.926512   -1.682953   -1.986592
O      1.835733   -0.832473   -0.955779
O     -2.491992    1.001068    0.688952
O      3.361372    0.638992   -0.162853
O     -1.534141    2.788353   -0.320163
O     -0.648084   -0.768520    0.056000
H     -3.192515   -2.830944   -0.518919
H     -2.777582   -4.550152   -0.613909
H     -2.851363   -3.726930    1.018486
H      5.175498   -2.165613   -0.397919
H      4.776539   -1.424903    1.215371
H      3.492488   -2.036465    0.158789
H     -1.757533    3.488046    2.089242
H     -3.187957    4.628547    1.890009
H     -3.431481    2.829361    1.900932
H     -0.611501   -3.971384   -0.877637
H     -0.628765   -3.377326    0.816516
H      5.380517    0.367068   -0.239525
H      4.501217   -0.347698   -1.624966
H     -3.536873    3.199052   -0.319138
H     -2.408796    4.637087   -0.273894
H      0.951129    1.375673    1.057858
H      0.973454    2.079859   -0.627599
H     -0.468980    0.479241   -1.525308
