35

C     -0.144166    4.329314   -1.655979
C      4.151800   -0.113012    2.354466
C     -3.706727   -3.357983   -0.072022
C     -0.761140    3.478759   -0.579276
C      3.790151   -0.007782    0.911311
C     -2.747047   -3.321004   -1.219431
C      0.180348   -1.045278    0.746143
C     -0.581595   -0.292268   -0.302319
C     -0.454929    2.053031   -0.840501
C      1.406370   -0.321145    1.144184
C     -1.798473   -1.124766   -0.620377
O      0.217494    1.722344   -1.825254
O      1.435655    0.606070    1.990213
O     -2.940705   -0.609352   -0.624822
O      2.603801   -0.678236    0.554054
O     -1.674609   -2.464992   -0.911134
O     -0.879154    1.015669   -0.036285
H      0.879678    4.607520   -1.351988
H     -0.062358    3.699190   -2.587803
H     -0.750119    5.209352   -1.920315
H      4.939504   -0.891860    2.531079
H      4.639024    0.852482    2.679599
H      3.308135   -0.325298    3.029141
H     -3.324560   -2.742891    0.774604
H     -3.802538   -4.394620    0.345947
H     -4.674272   -2.959502   -0.424935
H     -0.303548    3.807536    0.392511
H     -1.854850    3.665176   -0.504566
H      4.611977   -0.447271    0.294736
H      3.749837    1.067137    0.616747
H     -3.226924   -2.997195   -2.166816
H     -2.315621   -4.337704   -1.382347
H      0.500620   -1.999870    0.280384
H     -0.440377   -1.345229    1.613148
H      0.029318   -0.336325   -1.232098
