34

C     -2.910992    1.707330    1.048241
C     -4.120459    1.279279    0.568854
C      3.114532    0.915697    0.407223
C      1.792740    1.624417    0.650544
C      3.017796   -0.556555    0.308505
C     -1.759275    0.927166    0.855699
C     -4.189566    0.093211   -0.094527
C      1.373868   -1.667057   -1.099912
C     -0.055769   -1.216826   -1.362018
C      0.830837    0.833100   -0.242399
C      1.689692   -1.209701    0.339249
C     -1.795809   -0.253557    0.197236
C     -3.050420   -0.670499   -0.282225
C     -0.628642   -1.094294    0.032940
Br    -3.233151   -2.288776   -1.253710
N      0.549585   -0.336116    0.588445
H     -2.891616    2.645868    1.568379
H     -5.028299    1.855683    0.697813
H      3.480189    1.393301   -0.560734
H      3.835284    1.276209    1.162517
H      1.875916    2.661389    0.361989
H      1.567650    1.463155    1.734037
H      3.651851   -0.978444    1.118110
H      3.554652   -0.835537   -0.652033
H     -0.887074    1.370412    1.347726
H     -5.156602   -0.216165   -0.471600
H      1.498727   -2.772282   -1.141205
H      2.097811   -1.260002   -1.804141
H     -0.561951   -2.129301   -1.828685
H     -0.058723   -0.344212   -1.969905
H      0.040021    1.423720   -0.624477
H      1.453144    0.472264   -1.120452
H      1.595319   -2.084492    0.986754
H     -0.691263   -2.028384    0.533758
