41

C      0.658821   -0.703216   -2.320017
C     -4.789178    1.743782   -0.399552
C      4.991063    1.058118   -0.265384
C     -4.336581    1.779339    0.903060
C     -4.077182    0.980483   -1.301212
C      3.886214    1.541520   -0.914846
C      4.823581    0.191438    0.792750
C     -3.209217    1.072487    1.282650
C     -2.952347    0.278085   -0.912147
C      2.627692    1.149333   -0.494553
C      3.558598   -0.184937    1.192921
C     -2.491186    0.306810    0.388090
C      2.412952    0.294686    0.545693
C     -1.278285   -0.452271    0.801615
C     -0.041373   -0.006597    0.120557
C      1.136568   -0.181001    1.045273
C     -1.390220   -1.909285    0.517280
C     -0.385708   -2.147919   -0.550343
N      0.122315   -0.892394   -0.996780
O      1.213860   -1.512487    1.451991
O     -1.131348   -2.638904    1.675450
O     -0.074625   -3.293064   -0.953920
H      0.539768    0.346473   -2.670881
H      1.753063   -0.968925   -2.270402
H      0.174872   -1.351139   -3.054699
H     -5.671009    2.297433   -0.693752
H      5.995543    1.342176   -0.565218
H     -4.893340    2.378488    1.616322
H     -4.453453    0.967084   -2.325926
H      3.990677    2.226935   -1.753038
H      5.724971   -0.168665    1.280725
H     -2.852130    1.098904    2.304497
H     -2.416688   -0.307111   -1.629924
H      1.795734    1.553381   -1.016102
H      3.481554   -0.872960    2.035718
H     -1.134293   -0.250672    1.901897
H     -0.184524    1.051768   -0.182814
H      0.901823    0.385201    1.998824
H     -2.425126   -2.091500    0.146287
H      1.765627   -2.057884    0.838731
H     -1.367483   -2.052994    2.450181
