34

C      3.599292    1.141609   -0.006061
C      4.246919    0.256574    0.793153
C     -2.960182    0.560919    1.381865
C     -2.738723   -0.888711    1.074052
C     -2.244327    1.448207    0.352186
C      2.348462    0.816526   -0.535944
C      3.658667   -0.963542    1.073296
C     -0.882596    1.161908   -1.729965
C      0.132899    0.105417   -2.083807
C     -1.299959   -1.272487    0.857385
C     -1.617691    0.484513   -0.613547
C      1.726723   -0.404064   -0.273105
C      2.397755   -1.283375    0.535590
C      0.378820   -0.708817   -0.812017
Br     1.649127   -2.996139    0.907545
N     -0.604909   -0.252629    0.148600
H      4.035420    2.110984   -0.254402
H      5.224089    0.455404    1.244641
H     -2.621965    0.779752    2.403206
H     -4.035018    0.750057    1.249135
H     -3.411548   -1.282948    0.290854
H     -3.052804   -1.439288    2.008003
H     -1.417358    1.963967    0.898960
H     -2.945647    2.165039   -0.106206
H      1.836778    1.530291   -1.160826
H      4.165829   -1.679458    1.702469
H     -0.465565    2.142759   -1.474347
H     -1.573885    1.266898   -2.603967
H      1.044973    0.473722   -2.557081
H     -0.368090   -0.656279   -2.770371
H     -1.305315   -2.225661    0.234685
H     -0.815038   -1.564481    1.826347
H     -2.355648   -0.213796   -1.059505
H      0.270517   -1.782871   -0.940821
