46

C      4.411672    1.883308    0.294480
C      3.871009    0.718053   -0.470838
C     -1.430407   -2.133905    2.412308
C     -0.212121   -2.673392    2.063098
C     -2.054262   -1.141934    1.672913
C     -1.935501    1.846478   -2.232370
C     -3.158528    2.347970   -1.912182
C      1.694545   -2.748545    0.516061
C      2.419704    0.410244   -0.070914
C      2.462061   -1.970442   -0.496768
C     -0.001734    0.370870   -1.799281
C     -4.969460    1.758386    1.130828
C      0.396760   -2.176984    0.906773
C     -1.344443    0.856722   -1.426424
C     -1.414799   -0.684381    0.540261
C      0.525705   -0.774537   -1.056147
C     -3.815391    1.883535   -0.795564
C     -0.194955   -1.193075    0.149545
C     -1.978300    0.369743   -0.297359
C     -3.235797    0.910759   -0.000627
N      1.926070   -0.689064   -0.804933
O     -5.046075    2.184065   -0.214785
O     -4.099606    0.628223    1.045165
Cl     0.689313    0.000000    0.000000
H      3.605678    2.540081    0.681891
H      5.012644    2.509576   -0.404963
H      5.105220    1.590897    1.101969
H      4.510213   -0.153190   -0.308317
H      3.914424    0.958012   -1.569812
H     -1.891269   -2.540936    3.317798
H      0.261237   -3.450814    2.662120
H     -2.992321   -0.783963    2.018041
H     -1.379383    2.180648   -3.097880
H     -3.641190    3.129654   -2.526382
H      2.285044   -2.937309    1.445265
H      1.451751   -3.754581    0.058951
H      1.816983    1.316548   -0.053592
H      2.509980    0.101359    1.018098
H      2.511166   -2.540250   -1.475913
H      3.531063   -1.934166   -0.133754
H      0.663666    1.293151   -1.675842
H     -0.063777    0.133312   -2.894889
H     -4.488927    2.586113    1.694660
H     -5.960699    1.458225    1.553360
H      0.422349   -1.684461   -1.761790
H     -0.689313    0.000000    0.000000
