60

C     -2.004392   -1.699537   -1.376397
C      1.799787   -2.145100   -1.387649
C     -4.949222    2.060329   -0.274982
C     -4.314275    0.574014    1.613316
C      5.305807    1.149552   -0.513570
C      2.972811    2.075484   -0.886626
C     -0.138502   -2.855344    1.850716
C     -2.483468    1.288203   -1.206751
C      3.942427   -1.000118    0.333591
C     -1.545934    0.966018    1.080482
C      1.975947    0.276126    1.179838
C     -2.590500   -0.943660   -0.175951
C      1.996009   -0.654447   -1.149971
C     -2.523335    1.755549    0.236556
C      3.459828    0.333446    0.925469
C     -3.419984    0.163627   -0.738792
C      3.468560   -0.433593   -0.994025
C     -1.505565   -0.486071    0.764228
C      1.163349   -0.112388   -0.022434
C     -3.915505    1.138179    0.300348
C      3.800768    0.937978   -0.411069
B     -0.072627   -1.034980    0.345517
O      0.203516   -2.477545    0.559354
H     -2.791394   -1.900163   -2.109413
H     -1.518780   -2.620568   -1.013891
H     -1.199979   -1.041026   -1.772051
H      2.207100   -2.775935   -0.594325
H      2.447288   -2.363394   -2.290254
H      0.785173   -2.385674   -1.700909
H     -5.894285    2.003853    0.336676
H     -4.595859    3.099490   -0.357960
H     -5.269589    1.717444   -1.297515
H     -5.439833    0.626165    1.687436
H     -4.066644   -0.491638    1.762951
H     -3.937176    1.136001    2.494743
H      5.452773    2.259321   -0.576501
H      5.695056    0.630016   -1.409101
H      5.844533    0.806886    0.372729
H      3.686818    2.889611   -1.211642
H      2.354208    2.559568   -0.096378
H      2.379915    1.858407   -1.809250
H      0.180691   -2.117540    2.613930
H     -1.198829   -3.075067    1.987079
H      0.426004   -3.791565    2.068269
H     -1.493462    0.961757   -1.519830
H     -3.014168    1.984436   -1.878778
H      5.032607   -1.069184    0.390192
H      3.362175   -1.809578    0.768722
H     -1.865167    1.180178    2.146860
H     -0.579888    1.501653    0.993587
H      1.838496   -0.460809    2.025144
H      1.706259    1.257879    1.620177
H     -3.301529   -1.676319    0.289005
H      1.721205   -0.182366   -2.142028
H     -2.459857    2.821031    0.409477
H      4.001727    0.682475    1.793901
H     -4.129286   -0.189158   -1.477525
H      4.021769   -0.726018   -1.876862
H     -1.723760   -1.020973    1.741562
H      0.710185    0.845082   -0.419424
