30

C      1.526704   -2.713976   -0.336552
C     -3.372290    1.670989   -0.186772
C     -2.285804    1.986268   -0.962657
C     -3.501616    0.400171    0.360474
C      2.463748    1.432256    1.704340
C     -1.317441    1.027539   -1.198062
C     -2.517021   -0.498252    0.089608
C      3.394355    1.888428    0.734858
C      1.301213    0.660250    1.127163
C     -0.363023   -1.274493   -0.899258
C      0.656625   -1.497504    0.157738
C     -1.379192   -0.239877   -0.694776
N      4.179436    2.293642   -0.077348
N      1.618554   -0.506598    0.416792
H      2.152952   -2.396005   -1.155963
H      2.119472   -3.117968    0.487147
H      0.801132   -3.466624   -0.746356
H     -4.160267    2.403855    0.018627
H     -2.239245    3.003078   -1.357343
H     -4.366146    0.210590    0.968885
H      2.939815    0.751954    2.446114
H      2.013575    2.276919    2.311853
H     -0.489551    1.353769   -1.810045
H     -2.591248   -1.513477    0.479035
H      0.847570    1.391969    0.385767
H      0.583291    0.446041    1.936675
H     -0.906496   -2.254000   -1.119988
H      0.170564   -1.063568   -1.892671
H      0.112572   -1.898084    1.058662
H      2.607760   -0.757294    0.349322
