18

C      3.051342    0.545161    0.272444
C     -1.543220   -0.572905    0.800857
C      1.843031   -0.286113   -0.028769
C     -0.537688   -0.505579   -0.323303
C     -2.149708    0.741608    1.094308
C     -1.206607   -0.027217   -1.562122
Cl    -3.237677    1.499505   -0.046692
Cl    -2.643920   -0.846442   -2.122865
O      1.959952   -1.517959   -0.283044
O     -1.915283    1.352940    2.146226
O     -0.787999    0.915792   -2.199024
O      0.577736    0.277899   -0.037120
H      3.073566    1.422965   -0.426435
H      3.945476   -0.059377    0.055850
H      3.083100    0.830627    1.333250
H     -2.306190   -1.335198    0.596806
H     -1.007166   -0.887984    1.729974
H     -0.198747   -1.547724   -0.523555
