46

C     -4.590548    0.592247   -1.644954
C     -4.051414   -0.145653   -0.435551
C      1.255007    2.905240    0.938095
C     -0.013958    2.715406    1.411045
C      1.943548    1.820965    0.368180
C      2.054744   -2.808704   -1.033438
C      3.368733   -2.670486   -1.391551
C     -1.996917    1.369489    1.902253
C     -2.524380   -0.063451   -0.384616
C     -2.407558   -0.079195    1.968276
C     -0.065416   -1.808298   -0.231572
C      5.622697    0.102922   -0.866821
C     -0.625066    1.502148    1.344179
C      1.374684   -1.695476   -0.512780
C      1.331061    0.596439    0.296769
C     -0.572704   -0.899862    0.795721
C      4.019655   -1.470444   -1.248335
C      0.034840    0.430759    0.789254
C      2.031078   -0.503802   -0.369258
C      3.366075   -0.349441   -0.730702
N     -2.023407   -0.765629    0.751011
O      5.326733   -1.125438   -1.548352
O      4.316293    0.629225   -0.740040
Cl     0.683765    0.000000    0.000000
H     -5.384017    1.318212   -1.368658
H     -5.074558   -0.128283   -2.340866
H     -3.806261    1.123337   -2.218711
H     -4.357543   -1.208515   -0.467878
H     -4.475391    0.312342    0.457996
H      1.763965    3.864119    0.980813
H     -0.570826    3.549614    1.861893
H      2.923296    1.949344   -0.005433
H      1.502421   -3.734781   -1.127819
H      3.861002   -3.566208   -1.795361
H     -2.729386    1.943181    1.305349
H     -2.030068    1.804555    2.918269
H     -2.268200    1.011623   -0.412392
H     -2.162979   -0.465135   -1.365487
H     -3.484276   -0.206292    2.117685
H     -1.870069   -0.587392    2.800523
H     -0.562186   -1.632470   -1.236147
H     -0.332638   -2.896862   -0.035172
H      6.271070    0.747602   -1.466106
H      6.004538   -0.078156    0.158274
H     -0.391671   -1.398797    1.812417
H     -0.683765    0.000000    0.000000
