18

C      2.627615   -1.363806    0.225281
C     -1.644022    0.428995   -0.590266
C      1.393308   -0.739179    0.726787
C     -0.487854    0.769917    0.245953
C     -2.019495   -0.977636   -0.682726
C     -0.267349    2.241479    0.210483
Cl    -3.352782   -1.538937   -1.621921
Cl    -1.621730    3.286633    0.595929
O      0.976563   -0.967643    1.875192
O     -1.319298   -1.719872   -0.046613
O      0.788463    2.738276   -0.068194
O      0.689859    0.109374   -0.085043
H      3.549422   -0.949167    0.713039
H      2.738311   -1.212144   -0.853006
H      2.566059   -2.466547    0.439114
H     -1.830376    1.084332   -1.494186
H     -2.002022    0.777931   -0.859628
H     -0.784672    0.497993    1.269805
