31

C      4.753098    0.570504   -0.704079
C      4.481042    1.616137    0.134768
C     -3.368734    0.942102   -0.664925
C     -4.496571    0.168238   -0.149325
C     -2.043941    0.533844   -0.057858
C      3.815033   -0.448036   -0.887678
C      3.276990    1.645103    0.788069
C     -4.332774   -1.059291    0.298123
C     -0.792720   -1.416287    0.898082
C     -1.879558   -0.971376   -0.056143
C      2.603655   -0.415147   -0.227912
C      2.348670    0.635739    0.605443
C      1.476878   -1.324532   -0.239555
C      0.999628    0.395859    1.156269
N      0.481422   -0.805975    0.629555
O      1.404967   -2.396614   -0.914866
O      0.475028    1.201675    1.968887
O     -3.087617   -1.623698    0.281941
H      5.708210    0.555185   -1.217212
H      5.179574    2.432522    0.310019
H     -3.270075    0.775473   -1.764175
H     -3.528751    2.021067   -0.477346
H     -5.470516    0.637498   -0.147398
H     -2.064370    0.907383    0.986302
H     -1.235296    0.960062   -0.677750
H      4.109683   -1.236257   -1.567184
H      3.064855    2.470287    1.448714
H     -5.177095   -1.650430    0.688729
H     -1.118020   -1.247521    1.964718
H     -0.715012   -2.531765    0.815953
H     -1.597683   -1.341749   -1.066461
