20

C     -0.350334    2.121022   -0.121061
C      2.792752    0.112327   -0.235808
C     -2.402117   -1.034649   -0.565546
C     -1.555619   -1.945611    0.011024
C     -1.972477    0.295117   -0.591321
C     -0.348157   -1.542838    0.531019
C     -0.764241    0.689238   -0.069411
C      0.085159   -0.250687    0.513724
O      2.076714   -0.908516    2.070224
S      1.656442    0.288943    1.187605
H      0.707314    2.232936    0.113419
H     -0.648245    2.520820   -1.115407
H     -0.931343    2.649170    0.684277
H      2.468509    0.744288   -1.068060
H      3.781174    0.484615    0.151663
H      2.925592   -0.950124   -0.499717
H     -3.363738   -1.293263   -0.990705
H     -1.848943   -2.974081    0.050049
H     -2.645698    1.031763   -1.052025
H      0.337256   -2.270470    0.996059
