53

C     -2.539623   -1.253811   -2.025992
C     -3.311142   -2.143035    0.777398
C      6.271670    1.745790    0.243262
C      5.926053    1.190572   -0.976527
C      5.576651    1.377372    1.384249
C      4.889191    0.279275   -1.014047
C      4.549385    0.471583    1.330947
C     -2.443995    2.455135   -0.262661
C     -3.703972    2.737934    0.211043
C      3.076881   -1.076027    0.094066
C     -1.124950   -1.275957    1.515415
C      1.801651   -0.261644   -0.141954
C      0.224358   -1.690937    1.011431
C     -0.637005    0.882159   -0.675334
C     -4.006786    0.471615    0.856706
C     -1.567409   -1.455009   -0.902602
C      4.197190   -0.087570    0.122379
C     -1.981210    1.171642   -0.168322
C     -4.487950    1.759953    0.768658
C     -2.750098    0.188984    0.383847
C     -0.361356   -0.539948   -1.021691
C     -2.174077   -1.190954    0.446285
N      0.642191   -1.077015   -0.182948
O     -5.771433    2.082140    1.242975
Br     0.766204    0.000000    0.000000
H     -2.023828   -1.594314   -2.965709
H     -2.854803   -0.220986   -2.202124
H     -3.375953   -1.967856   -1.887143
H     -2.918601   -3.198160    0.778221
H     -4.181143   -2.023766    0.127694
H     -3.555899   -1.959828    1.864959
H      7.082731    2.460681    0.282503
H      6.473699    1.480327   -1.879112
H      5.844904    1.810045    2.341829
H      4.630213   -0.144346   -1.981073
H      4.022290    0.207596    2.253383
H     -1.821041    3.252598   -0.709063
H     -4.078596    3.769465    0.138378
H      3.277534   -1.780205   -0.720248
H      3.036391   -1.569903    1.064411
H     -1.037236   -0.296217    2.031710
H     -1.429068   -2.010684    2.289882
H      1.950291    0.311977   -1.075243
H      1.770850    0.484837    0.690889
H      0.222154   -2.804263    0.865534
H      0.963847   -1.491494    1.812763
H     -0.476190    1.554022   -1.579395
H      0.073216    1.315462    0.073076
H     -4.614451   -0.314463    1.294550
H     -1.201039   -2.491236   -0.951538
H      0.022256   -0.581291   -2.072469
H     -6.096744    3.039755    1.162157
H     -0.766204    0.000000    0.000000
