56

C     -2.319190    2.132951   -0.870995
C      1.827086    1.711559    1.978917
C     -3.831097    0.567325    1.277810
C     -5.417536   -0.859378    0.061807
C      3.543282    1.169628   -1.187784
C      5.477560   -0.102446   -0.382126
C     -3.263594   -1.421300   -1.486754
C      3.787676   -1.406040    1.095815
C     -1.621592   -1.132178    0.316180
C      1.825537   -1.178419   -0.450545
C     -2.171587    0.728148   -1.288775
C      2.147462    0.285377    1.529618
C     -3.042694   -1.520628    0.032144
C      3.302726   -1.246224   -0.355497
C     -3.545592    0.062516   -1.220493
C      3.597765    0.127901    1.154168
C     -1.134090   -0.113552   -0.719399
C      1.177174   -0.342117    0.639078
C     -3.974771   -0.334913    0.128150
C      3.959146    0.120016   -0.261530
B      0.085781    0.646899   -0.000121
Cl     0.402764    2.422949   -0.328690
H     -3.383183    2.431458   -1.012971
H     -2.093819    2.351884    0.184963
H     -1.773911    2.843884   -1.563729
H      0.743833    1.793352    2.108898
H      2.302598    2.471342    1.352028
H      2.251347    1.910491    3.012668
H     -2.842046    0.672911    1.721594
H     -4.302984    1.552724    1.020553
H     -4.490090    0.172718    2.110529
H     -5.780267   -0.967390   -0.958030
H     -6.102507   -0.113882    0.560919
H     -5.533220   -1.790413    0.630998
H      2.597495    0.914661   -1.705041
H      3.400781    2.186971   -0.756513
H      4.284188    1.335234   -2.026088
H      5.991966   -0.047253    0.579336
H      5.719375   -1.070919   -0.839489
H      5.952756    0.671154   -1.033895
H     -2.376074   -1.627025   -2.082895
H     -4.194917   -1.918057   -1.819843
H      4.849176   -1.649546    1.109999
H      3.120372   -1.969092    1.743060
H     -1.017120   -2.084960    0.250539
H     -1.460540   -0.773332    1.351475
H      1.524591   -0.782438   -1.424917
H      1.460317   -2.245228   -0.450904
H     -2.007860    0.791456   -2.414976
H      2.131075   -0.269861    2.529225
H     -3.382224   -2.451706    0.478374
H      3.732141   -1.946224   -1.060895
H     -4.294369    0.487080   -1.908787
H      4.253808    0.614580    1.888343
H     -0.640436   -0.729185   -1.504433
H      0.547534   -1.083465    1.223645
