35

C      4.155236    1.228190   -1.390810
C      0.321591   -1.801571   -1.518084
C      1.048613    1.104599    2.467722
C     -4.251805    0.602203   -0.518148
C     -4.218486   -0.474798    0.341558
C     -3.044314    1.191129   -0.839749
C     -3.024238   -0.943439    0.858501
C     -1.850081    0.715004   -0.316958
C      2.211377   -0.247698   -1.363615
C      2.530040    1.104227    0.528122
C      2.944535    0.695763   -0.713353
C      1.069110   -0.780454   -0.775744
C      1.388098    0.577177    1.125068
C     -1.818598   -0.360022    0.540982
C      0.634416   -0.378452    0.480617
C     -0.564308   -0.904193    1.133476
O     -0.674929   -2.289955    1.042293
H      4.708533    0.392062   -1.853086
H      4.798216    1.787417   -0.671257
H      3.888666    1.938190   -2.189502
H      0.553390   -2.842907   -1.162318
H      0.654377   -1.822556   -2.599275
H     -0.771378   -1.632269   -1.583631
H      1.391761    0.357410    3.212056
H      1.539319    2.078121    2.656777
H     -0.042206    1.261799    2.603877
H     -5.180224    0.986896   -0.936096
H     -5.165437   -0.931778    0.589695
H     -3.034493    2.046895   -1.518505
H     -2.999455   -1.801090    1.543134
H     -0.895353    1.169242   -0.562113
H      2.505075   -0.606043   -2.360894
H      3.136060    1.858088    1.021812
H     -0.510300   -0.679122    2.217072
H     -1.432805   -2.598062    0.510377
