44

C     -2.741466   -0.522343   -1.893050
C     -0.684378   -1.836631    1.179008
C      6.503469    0.947646    0.681326
C      6.291511   -1.345069   -0.252649
C     -4.498788    0.524948   -0.287135
C      2.338929    1.284172    0.971685
C      2.082584   -0.902902    0.078392
C      3.704464    1.148077    0.866924
C      3.437774   -1.073514   -0.040105
C     -5.455662    0.656813   -1.154114
C     -2.282344   -0.104684    0.407250
C     -3.160844   -0.034351   -0.569093
C     -0.911308   -0.622261    0.318540
C      1.514740    0.249309    0.574045
C      4.253864   -0.012665    0.368510
C     -6.766900    1.196476   -0.909022
C      0.077313    0.431990    0.694926
N     -7.235140    1.634204    0.156775
N      5.661491   -0.151954    0.260288
O     -7.655357    1.242034   -2.020973
O     -0.377009    1.516841    1.134317
O     -6.628772    1.711121    1.346825
H     -2.224835   -1.528908   -1.817094
H     -2.095184    0.203488   -2.429293
H     -3.626547   -0.740967   -2.517599
H     -0.576075   -2.735452    0.539440
H      0.219589   -1.775856    1.813886
H     -1.598448   -2.063540    1.806692
H      6.256117    1.178074    1.749822
H      6.318236    1.854916    0.051466
H      7.576590    0.694481    0.640900
H      6.190765   -1.370596   -1.354761
H      5.844410   -2.272563    0.210323
H      7.373181   -1.326222   -0.025912
H     -4.713069    0.858274    0.729539
H      1.885807    2.206823    1.368467
H      1.439135   -1.709960   -0.235070
H      4.340305    1.985540    1.189749
H      3.932155   -1.954385   -0.421135
H     -5.209477    0.313460   -2.188000
H     -2.612745    0.264259    1.394498
H     -0.692888   -0.866731   -0.739609
H     -8.599555    1.592955   -1.923036
H     -6.895640    1.255655    2.200232
