54

C     -3.775705   -0.667339    1.506811
C      2.496534   -0.379856   -3.069169
C     -1.832327    2.391368    3.443476
C     -3.369114   -1.460661    0.353653
C      4.535084    0.643611    0.826637
C      4.025907    0.474508   -0.420049
C      0.280264   -1.728691    0.066061
C      0.049142   -2.373294   -1.276739
C      2.332453    0.240189    1.730616
C     -1.640023    0.663075   -1.964841
C     -2.159090   -1.852715   -1.672572
C     -0.104899    1.938901   -0.160712
C     -2.511075   -0.959454   -0.521068
C      3.693507    0.527291    1.894734
C     -1.895325    0.363829   -0.488302
C      1.794006    0.065739    0.497225
C      2.676261    0.190226   -0.584018
C     -0.445484   -0.254490   -2.322479
C     -0.978885    0.832837    1.742031
C     -0.687669    0.585012    0.341782
C      0.478605   -0.254458   -0.013870
C      0.628967    0.251967   -1.466091
N      1.964259   -0.006868   -1.795885
N     -0.839873   -1.599255   -2.110668
O      4.197977    0.698205    3.188113
O     -0.778410   -0.000454    2.618830
O     -1.505523    2.043205    2.113146
O      0.495795    1.644849   -1.347396
H     -3.787824    0.431710    1.360305
H     -4.874827   -0.915388    1.678975
H     -3.285628   -1.016212    2.420342
H      1.857865   -0.076056   -3.925031
H      3.495610    0.103388   -3.274485
H      2.676884   -1.465097   -3.190569
H     -1.853518    3.502540    3.489992
H     -2.878039    2.047826    3.620223
H     -1.119426    1.997633    4.185239
H     -3.772258   -2.457610    0.220165
H      5.601709    0.867080    0.930936
H      4.711361    0.569630   -1.259972
H      1.190338   -2.236259    0.474230
H     -0.520423   -2.020728    0.806354
H     -0.399677   -3.378841   -1.175383
H      1.008102   -2.492168   -1.806027
H      1.753578    0.164599    2.674481
H     -1.351332    1.695439   -2.147347
H     -2.514479    0.420857   -2.577501
H     -2.197690   -2.912470   -1.302847
H     -2.931188   -1.809857   -2.466770
H     -0.887538    2.700151   -0.201169
H      0.669836    2.275711    0.558009
H     -2.657475    1.143530   -0.172079
H     -0.218134   -0.060190   -3.383458
H      5.158811    0.903507    3.354129
