48

C     -3.125045    1.438843    1.399599
C     -3.854416   -2.303472   -1.044332
C      0.382997    1.988717   -1.657816
C     -1.643088    1.533595    1.528881
C     -2.561754   -1.949787   -0.296235
C      3.460277    2.028887    1.336368
C      2.474769    1.993391    0.385992
C      4.107372    0.852818    1.619121
C      2.387414   -1.534333   -0.689939
C      0.875293   -1.625009   -0.417469
C     -0.874652    0.318109    1.068094
C     -2.149478   -0.589679   -0.811192
C      1.101241    0.732780   -1.300706
C      2.122804    0.844780   -0.276557
C      2.816506   -0.332822    0.050833
C      0.177527   -0.418836   -1.003456
C      3.802762   -0.358620    0.984084
N     -0.979121   -0.066186   -0.258304
O      4.492897   -1.506215    1.315148
Cl     0.689631    0.000000    0.000000
H     -3.574178    1.977547    2.286006
H     -3.533628    1.966881    0.497267
H     -3.467221    0.399321    1.505876
H     -3.831242   -1.848608   -2.075828
H     -3.949604   -3.394579   -1.199284
H     -4.741071   -1.968687   -0.501830
H      0.208189    2.705705   -0.872083
H      0.882199    2.551048   -2.502432
H     -0.621818    1.703280   -2.072347
H     -1.391556    1.774415    2.603496
H     -1.271098    2.462531    0.991660
H     -1.857351   -2.749295   -0.517266
H     -2.824578   -1.834870    0.771367
H      3.735992    2.955993    1.863602
H      1.956875    2.896086    0.145699
H      4.890767    0.835171    2.360950
H      2.520538   -1.330588   -1.794415
H      2.853505   -2.471093   -0.414542
H      0.512151   -2.566503   -0.837274
H      0.791779   -1.592376    0.700245
H      0.196942    0.430457    1.430413
H     -1.244917   -0.501402    1.777052
H     -1.996197   -0.775786   -1.933826
H     -3.001367    0.082376   -0.775291
H      1.647568    0.437802   -2.252034
H     -0.211289   -0.810810   -2.003609
H      4.306306   -2.380980    0.886312
H     -0.689631    0.000000    0.000000
