58

C     -3.736988    0.721300   -1.369496
C     -4.517270    1.663619   -0.621209
C     -2.479630    0.410354   -1.126570
C     -5.737191    1.205303    0.116493
C      8.358315    1.058392   -1.054319
C      8.412734   -0.307606   -1.189264
C      7.193561    1.761366   -0.927138
C     -1.703074    0.992157   -0.048115
C     -6.809616    0.543480   -0.663322
C      1.697562    0.478157    0.629638
C      1.148394   -0.688458    0.324953
C      6.007537   -0.271360   -1.064092
C     -1.398757   -1.727270    2.495822
C      3.486446    1.539530   -0.736533
C      7.201217   -0.967980   -1.191684
C      3.154759    0.750027    0.471783
C      5.955150    1.094454   -0.928480
C     -1.175734    0.005670    0.965550
C     -0.279114   -1.044739    0.449062
C     -2.275007   -0.778726    1.659424
C     -0.465130   -2.233688    1.406339
C     -6.531377   -0.757006   -1.247429
Cl     7.246285   -2.717984   -1.362207
O      3.516364    1.547390    1.590941
O     -2.995546   -1.589930    0.809259
O     -0.966952   -3.350427    0.772402
O     -5.544523   -1.444159   -0.923955
O     -7.380153   -1.291604   -2.212182
O      4.830097    1.835374   -0.802458
H     -4.170942    0.224329   -2.254488
H     -4.957451    2.395099   -1.405998
H     -3.923847    2.393157   -0.008609
H     -1.968456   -0.323405   -1.760695
H     -6.219469    2.051242    0.676074
H     -5.436332    0.464484    0.933813
H      9.341327    1.558076   -1.055352
H      9.352038   -0.831916   -1.287507
H      7.245982    2.820674   -0.827686
H     -0.764667    1.415965   -0.530526
H     -2.118520    1.817789    0.512826
H     -7.210583    1.236600   -1.459238
H     -7.680946    0.416468    0.039394
H      1.054214    1.258942    1.007128
H      1.885581   -1.425929   -0.054519
H      5.109334   -0.880981   -1.098857
H     -0.887839   -1.109629    3.235179
H     -2.020044   -2.539365    2.924055
H      2.925543    2.504882   -0.801224
H      3.234138    0.972605   -1.690403
H      3.769221   -0.138606    0.553774
H     -0.669657    0.579676    1.766251
H     -0.584208   -1.439880   -0.556327
H     -2.911164   -0.144906    2.286368
H      0.543769   -2.501186    1.826009
H      3.299918    1.055744    2.434350
H     -2.561482   -1.844341   -0.016229
H     -0.382297   -4.125323    0.779620
H     -7.505518   -2.295898   -2.269548
