43

C     -4.325216    0.861731    1.598662
C     -3.615957   -1.358124    0.943393
C     -4.854336    0.054392   -0.642681
C      2.290928   -2.770657    0.225965
C      3.635000   -2.479346    0.211912
C      1.374986   -1.752508    0.057972
C     -2.130275    0.509707   -1.304692
C      0.022907    1.474199   -0.436918
C      5.386968    1.611728   -0.287127
C     -0.961482    1.434653   -1.553315
C      4.077660   -1.165421    0.028906
C      1.746048   -0.424745   -0.128322
C      5.974574    0.278943   -0.093919
C      3.144547   -0.210042   -0.131367
C     -3.798588    0.028954    0.406334
N     -2.550614    0.669326    0.046325
N      5.457736   -0.856994    0.037215
O     -0.439459    1.372619   -2.819758
O      7.396914    0.288379   -0.047349
O      0.887089    0.523227   -0.282358
S      3.596940    1.502477   -0.396112
H     -5.399528    0.626917    1.704498
H     -4.194089    1.941207    1.370004
H     -3.752927    0.538184    2.482064
H     -3.576932   -2.150701    0.169074
H     -2.707893   -1.358452    1.600469
H     -4.487529   -1.539808    1.633622
H     -5.850520    0.145534   -0.119102
H     -4.915282   -0.911722   -1.196768
H     -4.787015    0.921791   -1.306592
H      1.984841   -3.796142    0.371770
H      4.377255   -3.236813    0.336667
H      0.329422   -2.010067    0.070176
H     -1.756695   -0.539979   -1.480207
H     -2.925961    0.681676   -2.061913
H      0.484902    2.534744   -0.535971
H     -0.582058    1.650392    0.516913
H      5.751023    1.986382   -1.275159
H      5.676215    2.317817    0.531639
H     -1.460661    2.479755   -1.524075
H     -1.813779    0.158350    0.642780
H     -0.645074    0.532394   -3.296070
H      7.935915   -0.563958   -0.030991
