27

C     -2.916122   -0.205673   -0.035866
C     -2.159989    0.326729    1.149767
C     -2.202120   -0.007763   -1.341230
C     -0.759245   -0.201139    1.248271
C     -0.708608    0.230025   -1.141246
C      3.588648   -0.198801   -0.408367
C     -0.280783   -0.766967   -0.069884
C      2.170849    0.065145    0.058258
C      1.193787   -0.969653   -0.108474
O      4.493401    0.047799    0.614835
O      1.809316   -0.766111    1.166162
H     -3.875826    0.354209   -0.094378
H     -3.199758   -1.269872    0.128288
H     -2.195460    1.441375    1.153262
H     -2.704827    0.000214    2.060749
H     -2.625664    0.768413   -1.981361
H     -2.271345   -0.975430   -1.914137
H     -0.671156   -1.029855    1.994831
H     -0.072983    0.610721    1.584963
H     -0.535158    1.239275   -0.732750
H     -0.186564    0.092977   -2.087291
H      3.673458   -1.282555   -0.697429
H      3.769057    0.391578   -1.315511
H     -0.799795   -1.724337   -0.237674
H      1.899334    1.128480    0.167160
H      1.533316   -1.938212   -0.562093
H      4.034237    0.428680    1.401145
