112

C    -16.296204    1.346865    2.300745
C     14.688449    0.698466    1.712375
C    -15.016450    0.635815    2.716155
C     15.273814    0.011069    0.517676
C    -14.461996   -0.002073    1.433405
C     14.332168    0.101512   -0.653631
C    -13.196889   -0.715216    1.827045
C     12.987662   -0.554989   -0.300527
C    -12.528684   -1.394027    0.651095
C     12.062002   -0.499119   -1.455997
C    -12.146143   -0.377908   -0.419477
C     10.713442   -1.090181   -1.302950
C    -11.488609   -1.014499   -1.585545
C      9.702881   -0.495857   -0.411930
C    -10.244983   -1.768217   -1.362935
C     10.071664   -0.301769    1.012312
C     -9.035654   -1.085778   -0.916588
C     -8.821978    0.187239   -0.707579
C      8.843004    0.137406    1.850786
C     -7.547459    0.806911   -0.253479
C      8.322183    1.416684    1.284589
C     -6.451010   -0.203257   -0.207867
C      7.108145    1.852584    2.097110
C     -6.095713   -0.678823   -1.573796
C      6.035561    0.786726    2.109631
C     -5.546503    0.451194   -2.404912
C      5.624076    0.464067    0.716179
C     -4.298801    1.053370   -1.830885
C      5.037727    1.558341   -0.084813
C     -3.271429   -0.031489   -1.740528
C      3.766981    2.163447    0.391753
C     -1.968899    0.579547   -1.226085
C      2.116928   -1.281016   -2.103160
C      2.094288   -1.254473    0.381046
C      1.244079   -1.339207   -0.831314
C      2.651352    1.173200    0.436485
C     -1.005087   -0.523198   -1.146008
O      3.041208   -2.297139   -2.147493
O      1.459326    1.556964    0.526507
O     -1.364475   -1.704371   -1.299251
O      2.892737   -0.146571    0.380678
O      0.337175   -0.259046   -0.899057
H    -16.251075    1.616603    1.226942
H    -17.153756    0.634260    2.410946
H    -16.501854    2.223030    2.942002
H     14.149487    1.602052    1.388343
H     15.478405    0.973010    2.442130
H     14.011793   -0.007972    2.246741
H    -14.289592    1.377698    3.111677
H    -15.190660   -0.159545    3.445657
H     15.562309   -1.026820    0.755683
H     16.198345    0.576287    0.220435
H    -15.163835   -0.771496    1.055281
H    -14.262589    0.782127    0.695960
H     14.151779    1.150499   -0.918616
H     14.704810   -0.415027   -1.547262
H    -12.434128   -0.007086    2.237997
H    -13.369319   -1.487818    2.599916
H     12.585941   -0.146434    0.606885
H     13.232662   -1.639955   -0.093181
H    -13.266090   -2.115560    0.232637
H    -11.615897   -1.897313    1.045679
H     12.543646   -1.014661   -2.340627
H     11.926275    0.573048   -1.772869
H    -13.148783    0.001745   -0.806151
H    -11.648631    0.484092   -0.014597
H     10.803939   -2.190994   -0.960121
H     10.221634   -1.236977   -2.321054
H    -12.268371   -1.619525   -2.134975
H    -11.271415   -0.183925   -2.319439
H      8.819446   -1.219007   -0.403819
H      9.310181    0.468435   -0.865474
H    -10.519297   -2.615250   -0.639318
H     -9.990716   -2.382699   -2.296621
H     10.584941   -1.115542    1.497725
H     10.666336    0.687135    1.026732
H     -8.188966   -1.776090   -0.668369
H     -9.678657    0.854697   -0.922394
H      8.094498   -0.664711    1.842482
H      9.268031    0.313251    2.866193
H     -7.735881    1.187280    0.794542
H     -7.308973    1.660173   -0.911452
H      8.058065    1.423774    0.233912
H      9.069292    2.262377    1.447603
H     -5.555614    0.318731    0.242596
H     -6.719406   -1.076936    0.435163
H      6.660348    2.749917    1.616659
H      7.412174    2.096489    3.131826
H     -6.933386   -1.079558   -2.192433
H     -5.403516   -1.542600   -1.470412
H      6.333192   -0.141924    2.628055
H      5.202721    1.224271    2.718065
H     -5.297882    0.087521   -3.445547
H     -6.312678    1.215317   -2.530428
H      5.042743   -0.507871    0.678322
H      6.580158    0.155588    0.176953
H     -4.482715    1.576761   -0.871062
H     -3.982887    1.868670   -2.532914
H      5.783514    2.395658   -0.234260
H      4.821448    1.125907   -1.111385
H     -3.128655   -0.434729   -2.769931
H     -3.580903   -0.878104   -1.113526
H      3.891856    2.698248    1.362352
H      3.469497    2.936596   -0.350086
H     -1.639980    1.409207   -1.849316
H     -2.100239    0.965283   -0.194343
H      1.411512   -1.432035   -2.944055
H      2.604780   -0.307843   -2.217798
H      1.511221   -1.396933    1.328330
H      2.773877   -2.163359    0.372713
H      0.690118   -2.280837   -0.928374
H      3.145484   -2.701786   -3.044802
