44

C     -4.789808    0.523044   -0.684317
C     -4.786441   -1.305314    0.821215
C      5.148261    1.615536    0.734835
C      4.005032   -0.450459    0.505345
C     -5.768096    1.129109    0.073583
C     -5.765681   -0.675717    1.560904
C      6.251411    1.025924    0.169744
C      5.103499   -1.045311   -0.059703
C     -3.244674   -1.403557   -1.080991
C      2.851048    1.556398    1.531665
C     -0.949405   -1.598751   -1.226012
C      1.551257    1.077126   -0.240488
C     -4.297920   -0.700008   -0.307041
C      4.001379    0.866797    0.907704
C     -6.285934    0.548909    1.218815
C      6.249568   -0.298308   -0.232818
C      0.314977   -1.073258   -0.576729
C      0.280922    0.435335   -0.745919
Cl    -7.535737    1.347854    2.166658
Cl     7.670920   -1.016713   -0.948348
O      0.266496   -1.430916    0.772479
O     -0.862380    0.973591   -0.216336
O     -2.017371   -0.993179   -0.565416
O      1.686107    0.964494    1.116251
H     -4.418919    1.037698   -1.586397
H     -4.408989   -2.293279    1.151567
H      5.185500    2.652628    1.037599
H      3.084437   -1.016519    0.654751
H     -6.147394    2.093384   -0.234813
H     -6.142570   -1.171102    2.454797
H      7.151696    1.618199    0.035430
H      5.044587   -2.095007   -0.358740
H     -3.315267   -1.038305   -2.145313
H     -3.376584   -2.485608   -1.103193
H      2.834569    2.616339    1.142322
H      2.905802    1.545025    2.639535
H     -0.923425   -1.324724   -2.303733
H     -1.015575   -2.713478   -1.158538
H      2.373304    0.721801   -0.853483
H      1.432029    2.177759   -0.469807
H      1.226086   -1.476940   -1.063762
H      0.250950    0.615150   -1.854375
H     -0.024003   -0.713364    1.362099
H     -0.793663    1.177714    0.750258
