24

C     -1.361516   -1.403069    0.446844
C     -1.150931    0.010506   -1.525108
C     -1.652261    0.996894    0.728270
C      2.404971   -1.514922   -0.175835
C      0.606727    0.016390    0.229326
C      1.230199    1.270268   -0.187982
C     -0.877229   -0.034626   -0.048198
N      1.220748   -1.094118   -0.425785
O      3.155230   -0.859464    0.793372
O      2.166232    1.255988   -1.012041
O      0.822124    2.500368    0.298744
H     -1.249279   -1.377677    1.555228
H     -2.434352   -1.479354    0.165010
H     -0.762132   -2.218768    0.025826
H     -0.505969    0.697454   -2.079315
H     -0.934521   -1.019358   -1.923904
H     -2.223475    0.199787   -1.682585
H     -1.502684    2.026817    0.323084
H     -1.254866    0.975428    1.773396
H     -2.701003    0.696192    0.785236
H      2.774332   -2.371503   -0.735728
H      0.730211   -0.107631    1.324532
H      2.709684   -0.493916    1.631268
H      0.789762    3.328316   -0.283656
