20

C     -1.366641   -1.625811    0.148298
C     -0.058804   -1.198248    0.096963
C     -2.430792   -0.755840   -0.093759
C     -0.871235    1.005702   -0.446700
C      0.185685    0.118404   -0.200886
C     -2.179047    0.567444   -0.392856
C      1.531961    0.674320   -0.281488
C      2.622535   -0.124925    0.219931
O     -3.250241    1.418370   -0.630722
O      1.501323    1.883457    0.416083
O      3.334253    0.327626    1.162126
O      3.007891   -1.380299   -0.217819
H     -1.565918   -2.655498    0.380899
H      0.787351   -1.841178    0.278691
H     -3.442735   -1.136225   -0.042484
H     -0.693329    2.047681   -0.682974
H      1.723561    0.965107   -1.346189
H     -3.666582    1.927599    0.160228
H      1.045844    1.670367    1.289055
H      3.784919   -1.888051    0.183602
