29

C     -2.262336    1.650023    0.972607
C      2.793921    1.269731   -0.423575
C      3.950987   -0.835845   -0.006633
C     -3.305416   -1.081888    0.205241
C     -2.264652    1.112925   -0.412048
C     -0.882816   -0.933165    0.031002
C      2.769964   -0.215231   -0.713519
C     -2.164422   -0.381225   -0.492256
C      1.512000   -0.768190   -0.158758
O      1.588654   -1.665297    0.715750
O      0.259379   -0.341655   -0.559942
H     -2.235757    0.871770    1.762762
H     -1.389108    2.341502    1.146188
H     -3.160246    2.278330    1.145610
H      2.489390    1.394509    0.633563
H      3.852370    1.599707   -0.556983
H      2.108009    1.809512   -1.114895
H      3.628865   -1.777380    0.514961
H      4.353985   -0.164393    0.794621
H      4.760818   -1.127317   -0.705901
H     -4.294830   -0.803088   -0.193613
H     -3.174245   -2.179093   -0.014456
H     -3.243572   -0.991335    1.308024
H     -1.398930    1.533691   -0.958632
H     -3.198531    1.409909   -0.934198
H     -0.845973   -2.018117   -0.268277
H     -0.798314   -0.912184    1.127850
H      2.789202   -0.420449   -1.813214
H     -2.238397   -0.655756   -1.576776
