37

C     -5.672125    0.644398   -1.887908
C     -5.192933    0.210006   -0.719477
C     -2.910181    0.615787   -1.650358
C      5.515901   -0.792830   -2.062135
C     -3.727059    0.154783   -0.462027
C      4.820448   -0.288991   -1.012272
C      0.192330   -0.005028    1.038917
C     -3.273903   -0.272660    0.674146
C      3.344902   -0.565476   -0.948530
C      2.475245   -0.102847    0.094973
C     -0.764371   -1.029113    1.536441
C     -1.014524    0.753539    0.528160
C     -4.155726   -0.717920    1.743825
C      6.727857    0.643287   -0.170220
N      7.535407    1.283621    0.581322
N      5.424282    0.411833   -0.093292
N      1.088699   -0.446182    0.020747
N     -1.851882   -0.343378    0.970721
O      2.827227   -1.259545   -1.886247
O      2.810721    0.585166    1.085577
O     -0.625712   -2.095275    2.207164
O     -5.382024   -0.763770    1.787686
O     -3.545039   -1.182075    2.941479
S     -1.175882    0.748066   -1.278520
S      7.214895   -0.184021   -1.668460
H     -5.072357    0.974515   -2.702104
H     -6.746932    0.653716   -1.994394
H     -5.856900   -0.099696    0.036203
H     -3.126563   -0.109622   -2.490131
H     -3.336940    1.604503   -1.945448
H      5.289922   -1.380036   -2.928582
H      0.687321    0.588255    1.821898
H     -1.181297    1.731140    0.986900
H      7.159367    1.728791    1.426817
H      4.928451    0.850082    0.782318
H      0.689905   -1.020346   -0.764976
H     -4.120532   -1.522677    3.713176
