32

C      3.642404    0.014960   -0.271596
C     -2.821042    0.828312   -0.619351
C     -2.376793   -1.414834    0.269322
C      1.684060   -0.281240    1.235974
C      0.196038   -0.508174    1.268750
C      1.348004   -0.456390   -1.180787
C      2.157414    0.226717   -0.107065
C     -0.543705    0.301216    0.235830
C     -0.043233    0.139949   -1.150719
C     -2.016862    0.038027    0.397686
O      0.070172    1.393423   -1.799279
O     -2.437316    0.472697    1.655216
H      3.973769   -0.671005    0.552663
H      3.900672   -0.407295   -1.253407
H      4.175012    0.973412   -0.098788
H     -2.950070    1.879957   -0.233452
H     -3.827769    0.373563   -0.779919
H     -2.244233    0.910235   -1.553959
H     -3.477974   -1.495640    0.158723
H     -1.962406   -1.793766   -0.710088
H     -2.079143   -2.034717    1.113690
H      2.166762   -1.271038    1.391103
H      2.020024    0.382473    2.046587
H     -0.089819   -1.564772    1.168219
H     -0.166389   -0.169713    2.266636
H      1.832073   -0.173148   -2.158390
H      1.347973   -1.547302   -1.018270
H      1.947302    1.321278   -0.117688
H     -0.390427    1.382342    0.525465
H     -0.735054   -0.448373   -1.807858
H      0.068193    2.131224   -1.154359
H     -2.367636    1.467620    1.729111
