54

C     -3.987088    3.853109   -1.800871
C      1.266164    2.333177    2.439397
C     -2.585655    3.237998   -1.868571
C     -5.192851   -3.719141    0.012451
C      5.584137   -2.252632   -1.716226
C     -4.026645   -3.929904    0.708078
C     -5.367922   -2.567347   -0.710549
C      6.335008   -2.364005   -0.564630
C      4.598693   -1.293775   -1.761012
C     -3.018600   -2.959255    0.672879
C     -4.351152   -1.617310   -0.730092
C      6.138705   -1.565250    0.523601
C      4.401802   -0.483224   -0.653038
C     -2.115597   -0.799485   -0.069491
C     -2.242755    0.223330    1.040432
C      4.896860    0.303407    1.645463
C      1.284691    1.347023    1.291603
C     -3.178131   -1.798066   -0.047572
C      5.148482   -0.595581    0.489745
C     -1.113528    1.229191    0.965591
C      2.453906    0.464625    1.419164
C     -1.210197    1.889693   -0.349475
N      0.109429    0.554203    1.205700
O      2.318506   -0.768522    1.435319
O     -0.336300    1.897900   -1.230086
O     -2.395100    2.570838   -0.633345
O      3.708631    1.016714    1.521500
H     -4.758836    3.048770   -1.942605
H     -4.142578    4.622995   -2.565959
H     -4.181196    4.270996   -0.791548
H      2.305977    2.525435    2.776030
H      0.688511    1.991517    3.297435
H      0.910380    3.307678    2.015823
H     -2.571181    2.572131   -2.736290
H     -1.895741    4.107979   -1.972840
H     -5.982598   -4.465563    0.032578
H      5.745518   -2.889822   -2.575414
H     -3.933347   -4.851593    1.263325
H     -6.299309   -2.409985   -1.260079
H      7.104129   -3.114768   -0.535033
H      3.980912   -1.162491   -2.636405
H     -2.109211   -3.132813    1.220624
H     -4.535679   -0.733700   -1.309754
H      6.720457   -1.638732    1.439042
H      3.613643    0.256329   -0.745769
H     -2.158955   -0.240065   -1.034772
H     -1.105443   -1.229334   -0.008777
H     -2.170676   -0.359483    2.001761
H     -3.241625    0.701547    1.062187
H      5.738761    1.044696    1.642495
H      4.997150   -0.258662    2.598512
H      1.414924    1.889961    0.308451
H     -1.267548    1.972323    1.782193
H      0.010068   -0.033054    2.062362
