54

C     -2.111165    4.457014   -0.582938
C      0.412187   -1.536294    2.645864
C     -2.530018    4.049514    0.817704
C     -5.217432   -2.317774   -2.783215
C      6.349700    0.770232   -1.410260
C     -5.081376   -2.796838   -1.503772
C     -4.748073   -1.060060   -3.083286
C      5.606562   -0.196455   -2.035101
C      6.455008    0.710584   -0.034555
C     -4.486384   -2.063282   -0.484628
C     -4.159994   -0.337744   -2.071046
C      4.978915   -1.204858   -1.304011
C      5.835178   -0.285568    0.692162
C     -3.350997    0.073528    0.252031
C     -1.873768   -0.190336    0.180675
C      4.422054   -2.316719    0.903011
C      0.771091   -1.068334    1.228687
C     -4.017363   -0.805045   -0.783883
C      5.072614   -1.279435    0.063982
C     -1.028793    0.564042    1.140431
C      2.279571   -1.140214    1.236659
C     -1.177376    2.017266    0.922222
N      0.383803    0.282527    1.010426
O      2.876277   -0.098052    1.595613
O     -0.175504    2.761251    0.625638
O     -2.374667    2.678771    1.018780
O      3.009127   -2.235441    0.887262
H     -1.402919    5.283608   -0.512086
H     -1.618204    3.564915   -1.039727
H     -3.015037    4.736026   -1.135452
H     -0.644084   -1.453343    2.881690
H      0.952887   -0.841745    3.355700
H      0.837154   -2.525909    2.840787
H     -3.571010    4.350301    1.019300
H     -1.862852    4.570433    1.553264
H     -5.672443   -2.872723   -3.584329
H      6.845082    1.576941   -1.972160
H     -5.444110   -3.777994   -1.264144
H     -4.850071   -0.668684   -4.097980
H      5.512759   -0.168672   -3.107776
H      7.049639    1.488685    0.436882
H     -4.382317   -2.453457    0.525784
H     -3.804498    0.651944   -2.364322
H      4.396342   -1.961478   -1.816586
H      5.912733   -0.343318    1.765304
H     -3.742574   -0.299873    1.233699
H     -3.656736    1.116778    0.107441
H     -1.562888    0.067054   -0.876602
H     -1.758006   -1.293637    0.255516
H      4.633346   -3.316786    0.398656
H      4.859647   -2.419662    1.913017
H      0.366570   -1.712946    0.445075
H     -1.385328    0.369072    2.193845
H      0.887745    0.902191    1.700751
