23

C      4.045121    0.012058   -0.270541
C     -1.786141   -0.204501   -1.143841
C     -3.121194    0.101917   -0.508770
C      0.456083   -0.234089   -0.194997
C     -0.785517    0.604202   -0.349130
C     -2.710326    0.627391    0.817805
N     -1.460945    0.884214    0.867997
O     -3.669162    0.786768    1.838221
O      2.390042   -2.016783    0.109186
O      3.161651   -0.907545    2.115179
O      1.409006    0.348574    0.608091
S      2.732329   -0.682182    0.695755
H      3.755686    1.021684   -0.682402
H      4.919316    0.189564    0.366816
H      4.358110   -0.629416   -1.106397
H     -1.585991   -1.300250   -1.020725
H     -1.723341    0.107209   -2.188124
H     -3.691063    0.876889   -1.072276
H     -3.721759   -0.825306   -0.381230
H      0.846428   -0.405199   -1.237446
H      0.170178   -1.231670    0.179491
H     -0.572969    1.561769   -0.868710
H     -3.415542    1.314703    2.662810
