35

C     -2.058144   -2.671707    0.050747
C     -2.008791   -2.720224   -1.337337
C     -1.312993   -1.678774    0.666802
C     -1.249516   -1.815120   -2.044552
C     -1.676113    1.813891    0.376906
C      0.540836    2.489620   -0.232014
C     -2.195630    3.010853   -0.030610
C      0.028996    3.717926   -0.653559
C      1.672764    0.204006    0.539572
C      3.107176   -3.020759    0.807708
C      2.829677   -1.351140    2.126249
C     -0.301033    1.555579    0.274171
C     -1.313057    3.935491   -0.539218
C     -0.548386   -0.766249   -0.030285
C     -0.515897   -0.835507   -1.412683
C      0.202965    0.239141    0.738313
F     -1.811327    5.131884   -0.949591
F      0.235522    0.068665   -2.054066
N      3.335776   -2.613260    2.058545
N      2.484537   -2.038662    0.143012
N      2.310650   -1.008304    0.948433
O     -0.181556    0.142788    2.071138
H     -2.656019   -3.383433    0.614899
H     -2.579225   -3.483222   -1.842730
H     -1.376839   -1.671623    1.764633
H     -1.228145   -1.875830   -3.139872
H     -2.354405    1.061263    0.784510
H      1.615011    2.349417   -0.333937
H     -3.255427    3.215560    0.046424
H      0.708675    4.445644   -1.051612
H      1.899345    0.390509   -0.528340
H      2.126685    1.034228    1.115810
H      3.396493   -3.996953    0.434858
H      2.869621   -0.765629    3.019009
H     -0.742225    0.889933    2.385996
