17

C      2.521107    0.482908    0.235572
C      1.819150   -0.312764   -0.545608
C     -0.438593   -1.242711   -0.075756
C     -1.795493   -0.537748    0.055359
C      0.372829   -0.159415   -0.718715
C     -1.332584    0.851730    0.371794
N     -0.134827    1.031520   -0.066525
O     -2.091291    1.780390    1.033163
H      3.576186    0.363647    0.355929
H      2.067701    1.304386    0.800981
H      2.329951   -1.102882   -1.074174
H     -0.084254   -1.452855    0.940835
H     -0.510697   -2.167203   -0.654524
H     -2.262544   -0.497482   -0.945433
H     -2.414860   -0.969699    0.838143
H      0.129566   -0.088079   -1.800746
H     -1.751346    2.716257    1.249706
