17

C      2.810886    0.142335    0.269650
C      1.775926   -0.468616   -0.276569
C     -0.616697   -1.104383   -0.433472
C     -1.865194   -0.334543    0.024357
C      0.440515   -0.302193    0.301137
C     -1.328044    1.054622    0.095994
N     -0.051713    1.040803    0.248782
O     -2.115135    2.190670    0.007697
H      2.657491    0.760469    1.140672
H      3.796612    0.015774   -0.161822
H      1.899182   -1.097874   -1.154509
H     -0.496991   -1.012832   -1.524378
H     -0.640120   -2.152430   -0.071606
H     -2.186145   -0.719447    0.997304
H     -2.685713   -0.433695   -0.691744
H      0.461448   -0.614406    1.371163
H     -1.856308    3.035748    0.484510
