44

C      5.315913    0.408934   -0.548266
C     -0.630518   -1.975511    1.390844
C     -1.193091   -1.813292   -1.608378
C      4.288942    0.033301    0.198160
C     -2.287480    1.724281    1.543891
C     -3.618522    1.606375    1.207795
C      0.104581    0.246122   -1.624166
C      3.109582    0.888108    0.385138
C      1.599339    0.178741   -1.388760
C      0.055103    1.120590    1.281027
C     -3.083035   -0.019538   -0.419927
C      0.162724   -1.231678    0.377747
C     -1.362485    0.953197    0.879632
C     -4.050154    0.732983    0.219367
C     -1.768264    0.081126   -0.103699
C      0.934345   -0.049509    0.933158
C     -0.675628   -0.701635   -0.757901
N      1.876538    0.380425   -0.029732
O     -5.404521    0.612603   -0.122004
Cl     0.691243    0.000000    0.000000
H      5.266128    1.376247   -1.025903
H      6.206550   -0.182068   -0.718000
H      0.029189   -2.216948    2.254386
H     -0.910359   -2.965148    0.940146
H     -1.579281   -1.501719    1.696666
H     -0.300949   -2.457340   -1.869238
H     -1.922165   -2.472834   -1.120817
H     -1.554778   -1.395624   -2.567818
H      4.339174   -0.942707    0.678300
H     -2.022470    2.428208    2.325814
H     -4.389604    2.194213    1.705420
H     -0.188005    1.312542   -1.430165
H     -0.115506    0.064960   -2.708268
H      3.280725    1.881840   -0.125357
H      3.048066    1.135924    1.482617
H      1.983935   -0.770452   -1.816821
H      2.030260    1.043326   -1.971720
H      0.074116    1.342921    2.371223
H      0.404133    2.056167    0.781515
H     -3.379714   -0.714759   -1.202377
H      0.903790   -1.923013   -0.067312
H      1.414552   -0.399497    1.873940
H     -5.991157   -0.069862    0.363997
H     -0.691243    0.000000    0.000000
