44

C      4.675869    1.876973   -0.060363
C      0.027653   -2.024242   -1.730118
C     -1.712331   -2.286333    0.545354
C      3.708886    1.036223   -0.488426
C     -1.921156    2.092532   -1.212068
C     -3.250408    2.162192   -0.845760
C     -0.212370   -0.709247    1.797963
C      3.139611    0.110386    0.518958
C      1.251129   -0.452851    1.725367
C      0.283275    1.051660   -1.229780
C     -2.972248    0.109469    0.364861
C      0.381192   -1.330402   -0.437300
C     -1.122494    1.022400   -0.783216
C     -3.774082    1.153757   -0.046999
C     -1.646472    0.042807   -0.003259
C      1.124096   -0.039467   -0.645032
C     -0.800655   -1.078746    0.439517
N      1.686404    0.360205    0.615292
O     -5.105297    1.225947    0.318224
Cl     0.686005    0.000000    0.000000
H      5.103255    2.553266   -0.756263
H      5.018420    1.872553    0.970748
H     -0.016510   -3.131173   -1.563422
H     -0.873763   -1.633406   -2.196668
H      0.878814   -1.859513   -2.422704
H     -1.149999   -3.210459    0.420406
H     -2.143736   -2.276804    1.570522
H     -2.569661   -2.203257   -0.153372
H      3.382924    1.052116   -1.513259
H     -1.537882    2.886580   -1.833494
H     -3.903221    2.970297   -1.157044
H     -0.760414    0.102599    2.290685
H     -0.368270   -1.615016    2.443224
H      3.315423   -0.938830    0.179465
H      3.655342    0.227659    1.467466
H      1.508452    0.158659    2.641856
H      1.853352   -1.369125    1.836788
H      0.278084    1.042886   -2.345424
H      0.713339    2.025995   -0.923443
H     -3.418537   -0.652553    0.988911
H      1.059406   -2.020837    0.102710
H      1.910261   -0.271557   -1.400600
H     -5.695683    1.966657    0.031690
H     -0.686005    0.000000    0.000000
