24

C     -2.906430   -0.696526    0.586863
C      3.059399   -1.149058    0.043779
C      2.000890   -2.000445   -0.192906
C     -0.144522    2.499736    0.181604
C      2.788426    0.193819    0.162569
C      1.164642    2.030786    0.233370
C      0.747902   -1.489219   -0.296671
C     -1.155895    1.597234   -0.051303
C     -1.949444   -0.666301   -0.582794
C      1.504389    0.693265    0.057560
C     -0.886451    0.253832   -0.236158
C      0.449294   -0.161145   -0.180600
Cl    -2.943844    0.297269   -1.838919
H     -3.534399    0.167100    0.710822
H     -3.513426   -1.633798    0.606977
H     -2.238573   -0.769854    1.519139
H      4.092000   -1.525649    0.152760
H      2.205852   -3.046999   -0.292987
H     -0.325821    3.531725    0.315047
H      3.577697    0.864645    0.380061
H      1.971277    2.750746    0.427504
H     -0.039910   -2.217323   -0.501595
H     -2.166941    2.035464   -0.092058
H     -1.756111   -1.559304   -1.112061
