64

C      7.380005   -0.901695   -0.120314
C     -7.462754   -0.137335    0.834511
C      6.951624   -0.056938    0.883740
C      6.686089   -0.881666   -1.311302
C     -6.965095   -0.856309   -0.232192
C     -6.805047    0.991636    1.301374
C      5.871461    0.785325    0.724978
C      5.598866   -0.032863   -1.469107
C     -5.778938   -0.428046   -0.841465
C     -5.623358    1.379602    0.659595
C      0.020603   -0.258375   -0.018847
C      1.288489   -0.447447    0.758264
C      4.001867    1.737210   -0.625117
C     -3.867563    1.101913   -1.059313
C      5.157202    0.816512   -0.478334
C     -5.114695    0.681019   -0.397877
C     -1.148944   -0.726284    0.852146
C      2.415654    0.010049   -0.097946
C     -2.374679   -0.524255    0.053698
N     -0.903753   -2.116514    1.148562
O      2.844731   -0.739433   -1.001132
O     -3.077025   -1.496084   -0.293103
O      2.937483    1.261304    0.155358
O     -2.742037    0.749813   -0.309208
C     -3.146133   -0.244560   -0.095371
C     -0.899945   -0.807946    0.881422
C     -0.990409    0.783016   -0.846278
C      0.479167   -0.660572    0.950113
C      0.379191    0.949392   -0.799609
C     -1.663609   -0.089744   -0.017671
C      1.135399    0.216237    0.114349
O      3.570219   -0.647401   -0.898729
O      3.179341    1.841715   -0.331425
O      3.389333    0.230293    1.560020
S      2.872883    0.439996    0.159880
H      8.229876   -1.548368    0.038165
H     -8.373519   -0.469284    1.299594
H      7.485250   -0.056376    1.832852
H      7.013498   -1.544918   -2.115175
H     -7.474228   -1.741700   -0.603850
H     -7.182724    1.567633    2.138197
H      5.526950    1.457001    1.516241
H      5.064662   -0.027112   -2.418205
H     -5.373048   -0.976577   -1.682126
H     -5.111638    2.259988    1.024805
H      0.018960   -0.761252   -0.995597
H     -0.175794    0.838154   -0.202583
H      1.373634   -1.515176    1.024810
H      1.202895    0.142243    1.692435
H      3.674641    1.678581   -1.690889
H      4.257674    2.774169   -0.328379
H     -3.855448    2.217858   -1.159487
H     -3.762091    0.707723   -2.088988
H     -1.136857   -0.116473    1.767176
H     -0.292464   -2.178691    1.994840
H     -0.400420   -2.618564    0.381995
H     -3.447408   -1.187195    0.403982
H     -3.536029   -0.124928   -1.109979
H     -3.560882    0.586473    0.544197
H     -1.418102   -1.488989    1.529253
H     -1.594792    1.355747   -1.562524
H      1.078647   -1.231666    1.663722
H      0.888826    1.647854   -1.467545
H      3.284302   -1.567723   -0.677806
