56

C      6.078222    1.681373   -1.258686
C      6.076281   -0.808686   -0.606895
C     -3.281289   -3.025026    1.545949
C     -2.217523   -3.230889    0.707456
C     -3.617173   -1.730448    1.848471
C     -4.868511    2.777043   -0.515794
C     -3.566024    2.396426   -0.763588
C     -1.509669   -2.156693    0.186571
C     -2.904105   -0.682380    1.322730
C     -5.867132    1.836317   -0.603264
C      4.478088    0.774406    0.384143
C      3.918780   -0.317757    1.159438
C      2.128471   -1.188303   -0.234916
C      1.674201    0.106216    1.763943
C      1.075250   -0.331017   -0.945698
C      0.946098    1.122391    0.918976
C     -4.267289    0.188298   -1.173748
C     -1.829315    0.772152   -1.346800
C      5.482788    0.558302   -0.443266
C     -3.244924    1.103036   -1.095055
C     -1.808902   -0.852619    0.460731
C     -5.585138    0.530159   -0.932511
C     -1.115682    0.336356   -0.053961
N      2.569538   -0.635009    0.981734
N      0.257941    0.382282   -0.092747
O     -6.644658   -0.359012   -1.000731
H      5.869431    1.486660   -2.337918
H      5.601814    2.632226   -0.963029
H      7.162837    1.693604   -1.130926
H      6.435401   -1.213931    0.361210
H      6.944056   -0.777256   -1.276134
H      5.354398   -1.530862   -1.041947
H     -3.835683   -3.878628    1.954211
H     -1.935733   -4.263266    0.455618
H     -4.453445   -1.561751    2.507949
H     -5.125050    3.799250   -0.254341
H     -2.797822    3.132143   -0.691874
H     -0.700114   -2.379192   -0.455962
H     -3.222819    0.314032    1.602072
H     -6.881868    2.159800   -0.404221
H      4.088807    1.771176    0.469345
H      4.514436   -1.270566    1.028126
H      4.079339   -0.071819    2.251094
H      1.630021   -2.158336   -0.030337
H      2.966939   -1.415236   -0.911870
H      2.267823    0.686941    2.528177
H      0.890283   -0.493094    2.282045
H      0.544088   -0.877871   -1.736070
H      1.709777    0.418667   -1.522953
H      0.286661    1.778533    1.510429
H      1.702552    1.755749    0.415342
H     -4.053728   -0.835218   -1.430382
H     -1.823784   -0.075530   -2.084840
H     -1.266260    1.597988   -1.843094
H     -1.426335    1.183112    0.667525
H     -6.884345   -0.854243   -0.129727
