35

C      3.417100    1.724497    1.078920
C     -2.646263   -2.091075   -0.665008
C     -4.473367    1.392123    2.091276
C      4.002810    1.334904   -0.254585
C      3.444351   -0.029004   -0.644568
C      1.932912    0.132898   -0.725243
C      1.387976   -1.224006   -1.112435
C     -0.093395   -1.136154   -1.214828
C     -0.766271   -0.724698    0.074588
C     -2.266820   -0.697694   -0.233693
C     -3.717489    0.917266    0.902730
O     -3.724239    1.589408   -0.173083
O     -2.978970   -0.252055    0.888867
H      2.557922    2.408231    0.901879
H      4.218550    2.242087    1.670599
H      3.028129    0.852100    1.650927
H     -3.660124   -2.378358   -0.317285
H     -2.653570   -2.129098   -1.781528
H     -1.948859   -2.850171   -0.295902
H     -4.472447    2.518814    2.051289
H     -4.013056    1.087601    3.034056
H     -5.531532    1.062510    1.985586
H      3.826008    2.079665   -1.037545
H      5.100497    1.219273   -0.144538
H      3.834947   -0.363423   -1.621723
H      3.654992   -0.787532    0.113125
H      1.733474    0.884214   -1.506763
H      1.587008    0.421918    0.272591
H      1.632681   -1.982089   -0.339725
H      1.790702   -1.568097   -2.078144
H     -0.349863   -0.327218   -1.960305
H     -0.521049   -2.097513   -1.548811
H     -0.541218   -1.482623    0.845737
H     -0.420797    0.250640    0.438813
H     -2.370729    0.002657   -1.103239
