56

C      6.876948    1.513711   -0.254183
C      5.631466    0.138637   -2.008112
C     -3.108354    3.500722    1.087124
C     -3.172574    2.420587    1.947380
C     -2.430417    3.313194   -0.111847
C     -5.838645   -0.555673   -0.266920
C     -4.543423   -0.314638   -0.696536
C     -2.595487    1.203483    1.645907
C     -1.841478    2.114174   -0.448823
C     -6.123969   -1.724171    0.385813
C      5.093476   -0.005388    0.347257
C      4.020861   -1.007816    0.091035
C      2.265176    0.633747   -0.210751
C      1.759161   -1.486209    0.634858
C      0.831781    0.856015    0.291595
C      0.681645   -1.361313   -0.421916
C     -3.811356   -2.386599    0.165546
C     -2.140937   -0.946306   -0.952441
C      5.834911    0.526393   -0.596441
C     -3.519349   -1.214191   -0.490605
C     -1.942838    1.078611    0.453622
C     -5.101301   -2.646403    0.603250
C     -1.322125   -0.220117    0.113239
N      2.776138   -0.488792    0.548630
N      0.010013   -0.088452   -0.416024
O     -5.339288   -3.846941    1.260835
H      7.590554    1.000308    0.440253
H      6.384035    2.340597    0.321554
H      7.428808    1.880740   -1.132746
H      4.557445    0.203903   -2.297200
H      6.264344    0.757846   -2.683484
H      5.973371   -0.930006   -2.104862
H     -3.560835    4.454535    1.323637
H     -3.699747    2.528211    2.906325
H     -2.352674    4.137865   -0.824720
H     -6.624248    0.162086   -0.438207
H     -4.369168    0.639502   -1.215686
H     -2.668204    0.365496    2.358633
H     -1.307791    1.983073   -1.404496
H     -7.123951   -1.959082    0.742296
H      5.259445    0.292484    1.377659
H      4.271850   -1.896875    0.704288
H      4.016202   -1.343414   -0.966940
H      2.872504    1.533154   -0.131365
H      2.221142    0.359259   -1.299892
H      1.328514   -1.596371    1.652865
H      2.253062   -2.481024    0.427696
H      0.596529    1.919211    0.048726
H      0.880086    0.688205    1.380644
H      0.011601   -2.230596   -0.246274
H      1.194790   -1.442039   -1.417130
H     -3.015646   -3.087839    0.326730
H     -1.704981   -1.919803   -1.242196
H     -2.138497   -0.345838   -1.910828
H     -1.253152   -0.898755    0.991375
H     -6.235420   -4.121098    1.611853
