53

C      0.513606   -2.533205   -2.640425
C      1.120521   -0.439743   -4.102832
C     -4.990361   -0.589628    3.441771
C     -3.881391    2.169752   -1.244232
C      2.746910   -1.046906    3.692042
C      4.774292    3.115388    0.668720
C     -1.536449   -1.481398    1.313922
C     -2.673738   -1.196053    2.025476
C     -2.050016    0.131373   -0.315279
C      1.683003   -0.566821    1.140461
C      2.695545    1.530593   -0.398465
C     -0.101902   -1.242017   -2.072897
C      0.305680   -0.061339   -2.853492
C     -1.175305   -0.851271    0.140611
C      1.156838   -0.334011   -0.114264
C      1.683900    0.714707   -0.848463
C     -3.505253   -0.220657    1.537847
C     -3.200054    0.443586    0.373139
C      2.710867    0.231076    1.645927
C      3.202782    1.266033    0.873455
C      0.079371   -1.196572   -0.603612
C      1.122568    0.941413   -2.153684
O      1.329987    2.035068   -2.731265
O     -4.656685    0.072010    2.253285
O     -4.076646    1.415045   -0.066203
O      3.260668    0.022934    2.902455
O      4.213391    2.048651    1.373380
H      1.573778   -2.615931   -2.339226
H      0.325993   -2.638956   -3.705589
H     -0.015779   -3.375136   -2.120122
H      1.520934    0.523984   -4.491820
H      2.005683   -1.051772   -3.825526
H      0.493333   -0.878110   -4.878925
H     -5.353413   -1.597434    3.202892
H     -5.800837   -0.046705    3.957754
H     -4.111486   -0.630812    4.135038
H     -4.447250    3.100494   -1.262016
H     -2.796578    2.411057   -1.415795
H     -4.208134    1.538360   -2.094999
H      2.925857   -1.993534    3.155234
H      1.665029   -0.893595    3.900068
H      3.317513   -1.041973    4.640074
H      5.459049    2.803193   -0.146428
H      5.329900    3.788831    1.375805
H      3.954615    3.736900    0.222614
H     -0.875390   -2.261367    1.707187
H     -2.880606   -1.746941    2.947240
H     -1.803740    0.641855   -1.221660
H      1.345160   -1.358029    1.795637
H      3.083660    2.341730   -0.999492
H     -1.211442   -1.393799   -2.248081
H     -0.578529    0.501404   -3.278550
H      0.330548   -2.241722   -0.248692
