40

C     -1.738172   -0.737478    1.627031
C     -4.373507   -0.358039   -1.638714
C     -3.076164   -0.509551   -2.408095
C     -4.193807    0.485837   -0.409176
C      5.177349   -1.324013    0.027260
C      4.024550   -1.991018   -0.318374
C     -1.976619   -0.860045   -1.394950
C     -2.901829    1.249541   -0.402309
C      5.178900   -0.106086    0.634314
C      2.831948   -1.387422   -0.031182
C     -0.978179    0.139253    0.684786
C     -1.693296    0.385052   -0.619630
C      3.947807    0.519568    0.932078
C      2.785565   -0.114341    0.602802
C      3.991758    1.810642    1.576947
C      1.476093    0.439093    0.862848
O      3.085258    2.556573    1.939970
O      5.282600    2.365638    1.867173
O      1.221414    1.518040    1.396727
O      0.353371   -0.312191    0.475834
H     -2.119148   -1.662259    1.207101
H     -1.023965   -1.026966    2.446439
H     -2.534451   -0.154618    2.139002
H     -5.148020    0.038896   -2.334172
H     -4.729575   -1.357241   -1.324026
H     -2.792966    0.398512   -2.941790
H     -3.163937   -1.351430   -3.106085
H     -5.015299    1.259905   -0.437303
H     -4.366387   -0.087008    0.539931
H      6.134830   -1.805482   -0.201796
H      4.080995   -2.962269   -0.801794
H     -2.353550   -1.699197   -0.818568
H     -1.086897   -1.121374   -2.027927
H     -2.817228    1.775539    0.564313
H     -2.993996    2.036907   -1.206756
H      6.080339    0.423919    0.908718
H      1.890979   -1.882906   -0.288944
H     -0.882693    1.130372    1.179227
H     -0.979200    0.998778   -1.245258
H      5.395132    3.278869    2.238226
