53

C      1.548714   -2.898137   -0.778557
C     -0.927251   -3.837790    0.700429
C      4.768467    2.792421    2.249745
C      3.606131    1.170597   -2.877714
C     -1.849591    3.613705    1.297598
C     -5.904616    0.753386   -1.096565
C      1.566408    0.189885    1.702028
C      2.625303    1.051976    1.893824
C      1.976145    0.195616   -0.610008
C     -1.415033    0.839514    0.489360
C     -3.464483   -0.521269   -0.691371
C      0.245631   -2.183392   -0.783371
C     -0.859713   -3.219342   -0.657709
C      1.219830   -0.256245    0.445842
C     -1.214471   -0.468332    0.106833
C     -2.259400   -1.141755   -0.488129
C      3.370383    1.488695    0.792274
C      3.045468    1.057509   -0.479600
C     -2.611011    1.501075    0.303468
C     -3.642900    0.803798   -0.295214
C      0.072793   -1.180610    0.306851
C     -2.145972   -2.539860   -0.932029
O     -3.058833   -3.153199   -1.509944
O      4.445190    2.358078    0.945696
O      3.804102    1.510272   -1.542264
O     -2.824913    2.818211    0.684580
O     -4.853470    1.466329   -0.485824
H      2.257082   -2.554310   -0.000577
H      1.472107   -3.998089   -0.662635
H      2.050764   -2.728654   -1.755297
H     -0.011653   -3.783079    1.287032
H     -1.746824   -3.403298    1.330225
H     -1.158528   -4.933907    0.572840
H      5.697860    3.409627    2.229808
H      4.893681    1.956237    2.960479
H      3.963691    3.449444    2.674865
H      4.072396    0.180713   -3.063921
H      2.510305    1.044536   -3.049012
H      3.958322    1.955818   -3.575953
H     -1.066412    3.975795    0.630359
H     -2.371677    4.520398    1.716799
H     -1.420005    3.092353    2.184616
H     -6.127463   -0.179930   -0.512818
H     -5.501166    0.379980   -2.073761
H     -6.790325    1.366895   -1.275019
H      0.994958   -0.143883    2.555472
H      2.882312    1.390846    2.884026
H      1.710828   -0.150303   -1.603129
H     -0.599464    1.358493    0.951425
H     -4.287688   -1.040566   -1.156198
H      0.064459   -1.662183   -1.752581
H     -0.667942   -3.970612   -1.466791
H     -0.042528   -1.743456    1.279520
