30

C      2.876488   -1.481012    0.013194
C     -2.976760   -0.138348    0.381585
C      0.775765    2.233393    0.732665
C      2.306310   -0.089952   -0.175343
C     -1.223184    1.318797   -0.465818
C     -0.490559   -1.723948    0.594367
C     -1.874215   -0.015860   -0.637615
C      0.267995    1.276793   -0.341576
C     -0.966229   -1.175180   -0.719996
C      0.811889   -0.109701   -0.153379
O      0.375182   -0.732805    0.985407
O      0.283695   -0.835870   -1.247682
H      3.945220   -1.460925    0.278575
H      2.718421   -2.009716   -0.961294
H      2.347211   -1.982620    0.838815
H     -3.386973    0.890298    0.603716
H     -2.677977   -0.557915    1.333452
H     -3.847587   -0.718835    0.011927
H      0.688192    1.827227    1.741222
H      0.168342    3.167406    0.605799
H      1.818931    2.527694    0.467748
H      2.711110    0.378694   -1.095756
H      2.641861    0.514765    0.690487
H     -1.499107    2.047622   -1.286959
H     -1.597209    1.843578    0.465283
H      0.097619   -2.655864    0.342317
H     -1.251266   -2.012517    1.291760
H     -2.409785    0.018425   -1.636925
H      0.718426    1.656686   -1.298357
H     -1.351806   -2.000309   -1.357618
